* NGSPICE file created from user_analog_project_wrapper_empty.ext - technology: sky130A

.subckt io_clamp vdd vss
X0 w_96698_n78672# vss sky130_fd_pr__diode_pd2nw_05v5 area=2.25e+16p
X1 w_96698_n6672# w_96698_n42672# sky130_fd_pr__diode_pd2nw_05v5 area=2.25e+16p
X2 vdd w_96698_n6672# sky130_fd_pr__diode_pd2nw_05v5 area=2.25e+16p
X3 w_96698_n42672# w_96698_n78672# sky130_fd_pr__diode_pd2nw_05v5 area=2.25e+16p
.ends

.subckt Class_D_post vp_p out_p vin_p vcmp_p vin avdd vin_n vn_p dvdd vn_n out_n vref
+ vtriang vss vcmp_n iin_15u vp_n w_n49798_13484# w_n49798_65757# w_n47900_14200#
X0 dvdd vss sky130_fd_pr__cap_mim_m3_2 l=3e+07u w=3e+07u
X1 out_n vn_p dvdd dvdd sky130_fd_pr__pfet_01v8 ad=0p pd=0u as=0p ps=0u w=4e+06u l=150000u
X2 vss vn_n out_n vss sky130_fd_pr__nfet_01v8 ad=0p pd=0u as=0p ps=0u w=4e+06u l=150000u
X3 out_n vn_p dvdd dvdd sky130_fd_pr__pfet_01v8 ad=0p pd=0u as=0p ps=0u w=4e+06u l=150000u
X4 dvdd vn_p out_n dvdd sky130_fd_pr__pfet_01v8 ad=0p pd=0u as=0p ps=0u w=4e+06u l=150000u
X5 out_p vp_p dvdd dvdd sky130_fd_pr__pfet_01v8 ad=0p pd=0u as=0p ps=0u w=4e+06u l=150000u
X6 out_p vp_n vss vss sky130_fd_pr__nfet_01v8 ad=0p pd=0u as=0p ps=0u w=4e+06u l=150000u
X7 dvdd vp_p out_p dvdd sky130_fd_pr__pfet_01v8 ad=0p pd=0u as=0p ps=0u w=4e+06u l=150000u
X8 dvdd vp_p out_p dvdd sky130_fd_pr__pfet_01v8 ad=0p pd=0u as=0p ps=0u w=4e+06u l=150000u
X9 a_n61221_57011# a_n63453_57011# vss vss sky130_fd_pr__nfet_01v8_lvt ad=0p pd=0u as=0p ps=0u w=1e+06u l=1e+06u
X10 avdd a_n91733_42923# vin_p avdd sky130_fd_pr__pfet_01v8_lvt ad=0p pd=0u as=0p ps=0u w=2e+06u l=1e+06u
X11 vss a_n64397_22887# a_n64397_22887# vss sky130_fd_pr__nfet_01v8_lvt ad=0p pd=0u as=0p ps=0u w=1e+06u l=1e+06u
X12 out_p vp_p dvdd dvdd sky130_fd_pr__pfet_01v8 ad=0p pd=0u as=0p ps=0u w=4e+06u l=150000u
X13 dvdd vp_p out_p dvdd sky130_fd_pr__pfet_01v8 ad=0p pd=0u as=0p ps=0u w=4e+06u l=150000u
X14 out_n vn_p dvdd dvdd sky130_fd_pr__pfet_01v8 ad=0p pd=0u as=0p ps=0u w=4e+06u l=150000u
X15 dvdd vn_p out_n dvdd sky130_fd_pr__pfet_01v8 ad=0p pd=0u as=0p ps=0u w=4e+06u l=150000u
X16 out_p vp_p dvdd dvdd sky130_fd_pr__pfet_01v8 ad=0p pd=0u as=0p ps=0u w=4e+06u l=150000u
X17 vss vn_n out_n vss sky130_fd_pr__nfet_01v8 ad=0p pd=0u as=0p ps=0u w=4e+06u l=150000u
X18 vss dvdd sky130_fd_pr__cap_mim_m3_2 l=1.6e+07u w=1.6e+07u
X19 dvdd vn_p out_n dvdd sky130_fd_pr__pfet_01v8 ad=0p pd=0u as=0p ps=0u w=4e+06u l=150000u
X20 out_p vp_p dvdd dvdd sky130_fd_pr__pfet_01v8 ad=0p pd=0u as=0p ps=0u w=4e+06u l=150000u
X21 vss vn_n out_n vss sky130_fd_pr__nfet_01v8 ad=0p pd=0u as=0p ps=0u w=4e+06u l=150000u
X22 vss vp_n out_p vss sky130_fd_pr__nfet_01v8 ad=0p pd=0u as=0p ps=0u w=4e+06u l=150000u
X23 dvdd vp_p out_p dvdd sky130_fd_pr__pfet_01v8 ad=0p pd=0u as=0p ps=0u w=4e+06u l=150000u
X24 vss a_n16362_6492# vn_p vss sky130_fd_pr__nfet_01v8 ad=0p pd=0u as=0p ps=0u w=5e+06u l=150000u
X25 out_n vn_p dvdd dvdd sky130_fd_pr__pfet_01v8 ad=0p pd=0u as=0p ps=0u w=4e+06u l=150000u
X26 a_n59836_35385# a_n91733_39491# avdd avdd sky130_fd_pr__pfet_01v8_lvt ad=0p pd=0u as=0p ps=0u w=2e+06u l=1e+06u
X27 dvdd vn_p out_n dvdd sky130_fd_pr__pfet_01v8 ad=0p pd=0u as=0p ps=0u w=4e+06u l=150000u
X28 vss a_n63453_57011# a_n61221_57011# vss sky130_fd_pr__nfet_01v8_lvt ad=0p pd=0u as=0p ps=0u w=1e+06u l=1e+06u
X29 out_n vn_n vss vss sky130_fd_pr__nfet_01v8 ad=0p pd=0u as=0p ps=0u w=4e+06u l=150000u
X30 dvdd vp_p out_p dvdd sky130_fd_pr__pfet_01v8 ad=0p pd=0u as=0p ps=0u w=4e+06u l=150000u
X31 out_p vp_p dvdd dvdd sky130_fd_pr__pfet_01v8 ad=0p pd=0u as=0p ps=0u w=4e+06u l=150000u
X32 dvdd vn_p out_n dvdd sky130_fd_pr__pfet_01v8 ad=0p pd=0u as=0p ps=0u w=4e+06u l=150000u
X33 vss vp_n out_p vss sky130_fd_pr__nfet_01v8 ad=0p pd=0u as=0p ps=0u w=4e+06u l=150000u
X34 vss dvdd sky130_fd_pr__cap_mim_m3_2 l=1.6e+07u w=1.6e+07u
X35 dvdd vn_p out_n dvdd sky130_fd_pr__pfet_01v8 ad=0p pd=0u as=0p ps=0u w=4e+06u l=150000u
X36 vss vn_n out_n vss sky130_fd_pr__nfet_01v8 ad=0p pd=0u as=0p ps=0u w=4e+06u l=150000u
X37 dvdd vn_p out_n dvdd sky130_fd_pr__pfet_01v8 ad=0p pd=0u as=0p ps=0u w=4e+06u l=150000u
X38 out_p vp_p dvdd dvdd sky130_fd_pr__pfet_01v8 ad=0p pd=0u as=0p ps=0u w=4e+06u l=150000u
X39 a_n65384_39513# a_n91733_41779# avdd avdd sky130_fd_pr__pfet_01v8_lvt ad=0p pd=0u as=0p ps=0u w=2e+06u l=1e+06u
X40 out_p vp_n vss vss sky130_fd_pr__nfet_01v8 ad=0p pd=0u as=0p ps=0u w=4e+06u l=150000u
X41 out_p vp_p dvdd dvdd sky130_fd_pr__pfet_01v8 ad=0p pd=0u as=0p ps=0u w=4e+06u l=150000u
X42 dvdd vp_p out_p dvdd sky130_fd_pr__pfet_01v8 ad=0p pd=0u as=0p ps=0u w=4e+06u l=150000u
X43 out_p vp_p dvdd dvdd sky130_fd_pr__pfet_01v8 ad=0p pd=0u as=0p ps=0u w=4e+06u l=150000u
X44 a_n91733_45211# iin_15u vss vss sky130_fd_pr__nfet_01v8_lvt ad=0p pd=0u as=0p ps=0u w=4e+06u l=2e+06u
X45 out_n vn_p dvdd dvdd sky130_fd_pr__pfet_01v8 ad=0p pd=0u as=0p ps=0u w=4e+06u l=150000u
X46 out_p vp_p dvdd dvdd sky130_fd_pr__pfet_01v8 ad=0p pd=0u as=0p ps=0u w=4e+06u l=150000u
X47 dvdd vp_p out_p dvdd sky130_fd_pr__pfet_01v8 ad=0p pd=0u as=0p ps=0u w=4e+06u l=150000u
X48 vss vn_n out_n vss sky130_fd_pr__nfet_01v8 ad=0p pd=0u as=0p ps=0u w=4e+06u l=150000u
X49 out_p vp_p dvdd dvdd sky130_fd_pr__pfet_01v8 ad=0p pd=0u as=0p ps=0u w=4e+06u l=150000u
X50 out_p vp_p dvdd dvdd sky130_fd_pr__pfet_01v8 ad=0p pd=0u as=0p ps=0u w=4e+06u l=150000u
X51 out_p vp_p dvdd dvdd sky130_fd_pr__pfet_01v8 ad=0p pd=0u as=0p ps=0u w=4e+06u l=150000u
X52 out_p vp_p dvdd dvdd sky130_fd_pr__pfet_01v8 ad=0p pd=0u as=0p ps=0u w=4e+06u l=150000u
X53 out_n vn_p dvdd dvdd sky130_fd_pr__pfet_01v8 ad=0p pd=0u as=0p ps=0u w=4e+06u l=150000u
X54 a_n62068_35385# a_n63012_35297# vss vss sky130_fd_pr__nfet_01v8_lvt ad=0p pd=0u as=0p ps=0u w=1e+06u l=1e+06u
X55 dvdd vn_p out_n dvdd sky130_fd_pr__pfet_01v8 ad=0p pd=0u as=0p ps=0u w=4e+06u l=150000u
X56 dvdd vp_p out_p dvdd sky130_fd_pr__pfet_01v8 ad=0p pd=0u as=0p ps=0u w=4e+06u l=150000u
X57 avdd a_n91733_37203# a_n61221_22975# avdd sky130_fd_pr__pfet_01v8_lvt ad=0p pd=0u as=0p ps=0u w=2e+06u l=1e+06u
X58 out_p vp_n vss vss sky130_fd_pr__nfet_01v8 ad=0p pd=0u as=0p ps=0u w=4e+06u l=150000u
X59 a_n61221_57011# a_n91733_44067# avdd avdd sky130_fd_pr__pfet_01v8_lvt ad=0p pd=0u as=0p ps=0u w=2e+06u l=1e+06u
X60 w_n48521_59023# a_n59836_35385# a_n48325_56923# w_n48521_59023# sky130_fd_pr__pfet_01v8_lvt ad=0p pd=0u as=0p ps=0u w=4e+06u l=1e+06u
X61 dvdd vp_p out_p dvdd sky130_fd_pr__pfet_01v8 ad=0p pd=0u as=0p ps=0u w=4e+06u l=150000u
X62 out_p vp_p dvdd dvdd sky130_fd_pr__pfet_01v8 ad=0p pd=0u as=0p ps=0u w=4e+06u l=150000u
X63 vss a_n16362_6492# vn_p vss sky130_fd_pr__nfet_01v8 ad=0p pd=0u as=0p ps=0u w=5e+06u l=150000u
X64 avdd a_n91733_41779# a_n91733_41779# avdd sky130_fd_pr__pfet_01v8_lvt ad=0p pd=0u as=0p ps=0u w=2e+06u l=1e+06u
X65 out_n vn_p dvdd dvdd sky130_fd_pr__pfet_01v8 ad=0p pd=0u as=0p ps=0u w=4e+06u l=150000u
X66 a_n48544_35385# a_n49488_35297# vss vss sky130_fd_pr__nfet_01v8_lvt ad=0p pd=0u as=0p ps=0u w=1e+06u l=1e+06u
X67 avdd a_n91733_45211# a_n91733_45211# avdd sky130_fd_pr__pfet_01v8_lvt ad=0p pd=0u as=0p ps=0u w=2e+06u l=1e+06u
X68 vcmp_n a_n47381_18289# vss vss sky130_fd_pr__nfet_01v8_lvt ad=0p pd=0u as=0p ps=0u w=1e+06u l=1e+06u
X69 out_n vn_n vss vss sky130_fd_pr__nfet_01v8 ad=0p pd=0u as=0p ps=0u w=4e+06u l=150000u
X70 out_n vn_p dvdd dvdd sky130_fd_pr__pfet_01v8 ad=0p pd=0u as=0p ps=0u w=4e+06u l=150000u
X71 dvdd vn_p out_n dvdd sky130_fd_pr__pfet_01v8 ad=0p pd=0u as=0p ps=0u w=4e+06u l=150000u
X72 vss vp_n out_p vss sky130_fd_pr__nfet_01v8 ad=0p pd=0u as=0p ps=0u w=4e+06u l=150000u
X73 dvdd vn_p out_n dvdd sky130_fd_pr__pfet_01v8 ad=0p pd=0u as=0p ps=0u w=4e+06u l=150000u
X74 vss a_n49488_35297# a_n48544_35385# vss sky130_fd_pr__nfet_01v8_lvt ad=0p pd=0u as=0p ps=0u w=1e+06u l=1e+06u
X75 dvdd vp_p out_p dvdd sky130_fd_pr__pfet_01v8 ad=0p pd=0u as=0p ps=0u w=4e+06u l=150000u
X76 out_n vn_p dvdd dvdd sky130_fd_pr__pfet_01v8 ad=0p pd=0u as=0p ps=0u w=4e+06u l=150000u
X77 w_n78659_43954# vin a_n77519_44173# w_n78659_43954# sky130_fd_pr__pfet_01v8_lvt ad=0p pd=0u as=0p ps=0u w=4e+06u l=1e+06u
X78 out_n vn_p dvdd dvdd sky130_fd_pr__pfet_01v8 ad=0p pd=0u as=0p ps=0u w=4e+06u l=150000u
X79 dvdd vn_p out_n dvdd sky130_fd_pr__pfet_01v8 ad=0p pd=0u as=0p ps=0u w=4e+06u l=150000u
X80 vp_p a_n16362_71100# vss vss sky130_fd_pr__nfet_01v8 ad=0p pd=0u as=0p ps=0u w=5e+06u l=150000u
X81 dvdd vn_p out_n dvdd sky130_fd_pr__pfet_01v8 ad=0p pd=0u as=0p ps=0u w=4e+06u l=150000u
X82 dvdd vn_p out_n dvdd sky130_fd_pr__pfet_01v8 ad=0p pd=0u as=0p ps=0u w=4e+06u l=150000u
X83 avdd a_n91733_37203# a_n61221_22975# avdd sky130_fd_pr__pfet_01v8_lvt ad=0p pd=0u as=0p ps=0u w=2e+06u l=1e+06u
X84 vss a_n16362_6492# vn_p vss sky130_fd_pr__nfet_01v8 ad=0p pd=0u as=0p ps=0u w=5e+06u l=150000u
X85 avdd a_n91733_41779# a_n65384_39513# avdd sky130_fd_pr__pfet_01v8_lvt ad=0p pd=0u as=0p ps=0u w=2e+06u l=1e+06u
X86 out_p vp_n vss vss sky130_fd_pr__nfet_01v8 ad=0p pd=0u as=0p ps=0u w=4e+06u l=150000u
X87 dvdd vp_p out_p dvdd sky130_fd_pr__pfet_01v8 ad=0p pd=0u as=0p ps=0u w=4e+06u l=150000u
X88 vss a_n19274_79650# a_n22132_76606# vss sky130_fd_pr__nfet_01v8 ad=0p pd=0u as=0p ps=0u w=5e+06u l=150000u
X89 a_n61221_22975# a_n63453_18290# vss vss sky130_fd_pr__nfet_01v8_lvt ad=0p pd=0u as=0p ps=0u w=1e+06u l=1e+06u
X90 dvdd vn_p out_n dvdd sky130_fd_pr__pfet_01v8 ad=0p pd=0u as=0p ps=0u w=4e+06u l=150000u
X91 out_p vp_p dvdd dvdd sky130_fd_pr__pfet_01v8 ad=0p pd=0u as=0p ps=0u w=4e+06u l=150000u
X92 dvdd vn_p out_n dvdd sky130_fd_pr__pfet_01v8 ad=0p pd=0u as=0p ps=0u w=4e+06u l=150000u
X93 avdd a_n91733_44067# w_n64593_59023# avdd sky130_fd_pr__pfet_01v8_lvt ad=0p pd=0u as=0p ps=0u w=2e+06u l=1e+06u
X94 out_p vp_p dvdd dvdd sky130_fd_pr__pfet_01v8 ad=0p pd=0u as=0p ps=0u w=4e+06u l=150000u
X95 out_p vp_p dvdd dvdd sky130_fd_pr__pfet_01v8 ad=0p pd=0u as=0p ps=0u w=4e+06u l=150000u
X96 dvdd vss sky130_fd_pr__cap_mim_m3_2 l=3e+07u w=3e+07u
X97 vss a_n77519_31129# vin_n vss sky130_fd_pr__nfet_01v8_lvt ad=0p pd=0u as=0p ps=0u w=1e+06u l=1e+06u
X98 out_p vp_p dvdd dvdd sky130_fd_pr__pfet_01v8 ad=0p pd=0u as=0p ps=0u w=4e+06u l=150000u
X99 dvdd vn_p out_n dvdd sky130_fd_pr__pfet_01v8 ad=0p pd=0u as=0p ps=0u w=4e+06u l=150000u
X100 a_n78463_31041# a_n79461_37096# w_n78659_33141# w_n78659_33141# sky130_fd_pr__pfet_01v8_lvt ad=0p pd=0u as=0p ps=0u w=4e+06u l=1e+06u
X101 a_n91733_42923# a_n91733_42923# avdd avdd sky130_fd_pr__pfet_01v8_lvt ad=0p pd=0u as=0p ps=0u w=2e+06u l=1e+06u
X102 dvdd vn_p out_n dvdd sky130_fd_pr__pfet_01v8 ad=0p pd=0u as=0p ps=0u w=4e+06u l=150000u
X103 out_n vn_n vss vss sky130_fd_pr__nfet_01v8 ad=0p pd=0u as=0p ps=0u w=4e+06u l=150000u
X104 vp_p a_n16362_71100# dvdd dvdd sky130_fd_pr__pfet_01v8 ad=0p pd=0u as=0p ps=0u w=5e+06u l=150000u
X105 dvdd vn_p out_n dvdd sky130_fd_pr__pfet_01v8 ad=0p pd=0u as=0p ps=0u w=4e+06u l=150000u
X106 out_n vn_p dvdd dvdd sky130_fd_pr__pfet_01v8 ad=0p pd=0u as=0p ps=0u w=4e+06u l=150000u
X107 out_n vn_p dvdd dvdd sky130_fd_pr__pfet_01v8 ad=0p pd=0u as=0p ps=0u w=4e+06u l=150000u
X108 w_n78659_43954# a_n91733_42923# avdd avdd sky130_fd_pr__pfet_01v8_lvt ad=0p pd=0u as=0p ps=0u w=2e+06u l=1e+06u
X109 out_n vn_p dvdd dvdd sky130_fd_pr__pfet_01v8 ad=0p pd=0u as=0p ps=0u w=4e+06u l=150000u
X110 vss vp_n out_p vss sky130_fd_pr__nfet_01v8 ad=0p pd=0u as=0p ps=0u w=4e+06u l=150000u
X111 dvdd vp_p out_p dvdd sky130_fd_pr__pfet_01v8 ad=0p pd=0u as=0p ps=0u w=4e+06u l=150000u
X112 dvdd vp_p out_p dvdd sky130_fd_pr__pfet_01v8 ad=0p pd=0u as=0p ps=0u w=4e+06u l=150000u
X113 vp_p a_n16362_71100# vss vss sky130_fd_pr__nfet_01v8 ad=0p pd=0u as=0p ps=0u w=5e+06u l=150000u
X114 dvdd vn_p out_n dvdd sky130_fd_pr__pfet_01v8 ad=0p pd=0u as=0p ps=0u w=4e+06u l=150000u
X115 vss a_n22132_76606# vp_n vss sky130_fd_pr__nfet_01v8 ad=0p pd=0u as=0p ps=0u w=5e+06u l=150000u
X116 dvdd vss sky130_fd_pr__cap_mim_m3_2 l=3e+07u w=3e+07u
X117 out_n vn_p dvdd dvdd sky130_fd_pr__pfet_01v8 ad=0p pd=0u as=0p ps=0u w=4e+06u l=150000u
X118 vss vp_n out_p vss sky130_fd_pr__nfet_01v8 ad=0p pd=0u as=0p ps=0u w=4e+06u l=150000u
X119 a_n48544_35385# a_n48744_37519# w_n49684_37397# w_n49684_37397# sky130_fd_pr__pfet_01v8_lvt ad=0p pd=0u as=0p ps=0u w=4e+06u l=1e+06u
X120 dvdd vp_p out_p dvdd sky130_fd_pr__pfet_01v8 ad=0p pd=0u as=0p ps=0u w=4e+06u l=150000u
X121 vcmp_n a_n91733_36059# avdd avdd sky130_fd_pr__pfet_01v8_lvt ad=0p pd=0u as=0p ps=0u w=2e+06u l=1e+06u
X122 out_p vp_p dvdd dvdd sky130_fd_pr__pfet_01v8 ad=0p pd=0u as=0p ps=0u w=4e+06u l=150000u
X123 out_n vn_p dvdd dvdd sky130_fd_pr__pfet_01v8 ad=0p pd=0u as=0p ps=0u w=4e+06u l=150000u
X124 out_p vp_n vss vss sky130_fd_pr__nfet_01v8 ad=0p pd=0u as=0p ps=0u w=4e+06u l=150000u
X125 a_n63453_57011# vref w_n64593_59023# w_n64593_59023# sky130_fd_pr__pfet_01v8_lvt ad=0p pd=0u as=0p ps=0u w=4e+06u l=1e+06u
X126 dvdd vp_p out_p dvdd sky130_fd_pr__pfet_01v8 ad=0p pd=0u as=0p ps=0u w=4e+06u l=150000u
X127 out_n vn_p dvdd dvdd sky130_fd_pr__pfet_01v8 ad=0p pd=0u as=0p ps=0u w=4e+06u l=150000u
X128 a_n48744_37519# a_n65384_39513# vss sky130_fd_pr__res_xhigh_po w=350000u l=9e+06u
X129 out_n vn_p dvdd dvdd sky130_fd_pr__pfet_01v8 ad=0p pd=0u as=0p ps=0u w=4e+06u l=150000u
X130 vcmp_p a_n47381_57011# vss vss sky130_fd_pr__nfet_01v8_lvt ad=0p pd=0u as=0p ps=0u w=1e+06u l=1e+06u
X131 a_n63012_35297# a_n63012_35297# vss vss sky130_fd_pr__nfet_01v8_lvt ad=0p pd=0u as=0p ps=0u w=1e+06u l=1e+06u
X132 dvdd vn_p out_n dvdd sky130_fd_pr__pfet_01v8 ad=0p pd=0u as=0p ps=0u w=4e+06u l=150000u
X133 out_p vp_n vss vss sky130_fd_pr__nfet_01v8 ad=0p pd=0u as=0p ps=0u w=4e+06u l=150000u
X134 dvdd vss sky130_fd_pr__cap_mim_m3_2 l=3e+07u w=3e+07u
X135 dvdd vn_p out_n dvdd sky130_fd_pr__pfet_01v8 ad=0p pd=0u as=0p ps=0u w=4e+06u l=150000u
X136 dvdd vn_p out_n dvdd sky130_fd_pr__pfet_01v8 ad=0p pd=0u as=0p ps=0u w=4e+06u l=150000u
X137 dvdd vp_p out_p dvdd sky130_fd_pr__pfet_01v8 ad=0p pd=0u as=0p ps=0u w=4e+06u l=150000u
X138 dvdd vss sky130_fd_pr__cap_mim_m3_2 l=3e+07u w=3e+07u
X139 dvdd vp_p out_p dvdd sky130_fd_pr__pfet_01v8 ad=0p pd=0u as=0p ps=0u w=4e+06u l=150000u
X140 out_n vn_p dvdd dvdd sky130_fd_pr__pfet_01v8 ad=0p pd=0u as=0p ps=0u w=4e+06u l=150000u
X141 vss vp_n out_p vss sky130_fd_pr__nfet_01v8 ad=0p pd=0u as=0p ps=0u w=4e+06u l=150000u
X142 a_n61221_22975# a_n91733_37203# avdd avdd sky130_fd_pr__pfet_01v8_lvt ad=0p pd=0u as=0p ps=0u w=2e+06u l=1e+06u
X143 avdd vss sky130_fd_pr__cap_mim_m3_2 l=3e+07u w=3e+07u
X144 dvdd vn_p out_n dvdd sky130_fd_pr__pfet_01v8 ad=0p pd=0u as=0p ps=0u w=4e+06u l=150000u
X145 w_n64593_18071# a_n68715_22497# a_n64397_22887# w_n64593_18071# sky130_fd_pr__pfet_01v8_lvt ad=0p pd=0u as=0p ps=0u w=4e+06u l=1e+06u
X146 vcmp_p a_n47381_57011# vss vss sky130_fd_pr__nfet_01v8_lvt ad=0p pd=0u as=0p ps=0u w=1e+06u l=1e+06u
X147 dvdd vp_p out_p dvdd sky130_fd_pr__pfet_01v8 ad=0p pd=0u as=0p ps=0u w=4e+06u l=150000u
X148 out_n vn_p dvdd dvdd sky130_fd_pr__pfet_01v8 ad=0p pd=0u as=0p ps=0u w=4e+06u l=150000u
X149 out_p vp_p dvdd dvdd sky130_fd_pr__pfet_01v8 ad=0p pd=0u as=0p ps=0u w=4e+06u l=150000u
X150 vss a_n64397_56923# a_n63453_57011# vss sky130_fd_pr__nfet_01v8_lvt ad=0p pd=0u as=0p ps=0u w=1e+06u l=1e+06u
X151 out_n vn_p dvdd dvdd sky130_fd_pr__pfet_01v8 ad=0p pd=0u as=0p ps=0u w=4e+06u l=150000u
X152 vss vp_n out_p vss sky130_fd_pr__nfet_01v8 ad=0p pd=0u as=0p ps=0u w=4e+06u l=150000u
X153 dvdd vp_p out_p dvdd sky130_fd_pr__pfet_01v8 ad=0p pd=0u as=0p ps=0u w=4e+06u l=150000u
X154 dvdd vp_p out_p dvdd sky130_fd_pr__pfet_01v8 ad=0p pd=0u as=0p ps=0u w=4e+06u l=150000u
X155 dvdd vn_p out_n dvdd sky130_fd_pr__pfet_01v8 ad=0p pd=0u as=0p ps=0u w=4e+06u l=150000u
X156 a_n77519_44173# vin w_n78659_43954# w_n78659_43954# sky130_fd_pr__pfet_01v8_lvt ad=0p pd=0u as=0p ps=0u w=4e+06u l=1e+06u
X157 dvdd vss sky130_fd_pr__cap_mim_m3_2 l=3e+07u w=3e+07u
X158 out_n vn_p dvdd dvdd sky130_fd_pr__pfet_01v8 ad=0p pd=0u as=0p ps=0u w=4e+06u l=150000u
X159 avdd a_n91733_45211# a_n91733_45211# avdd sky130_fd_pr__pfet_01v8_lvt ad=0p pd=0u as=0p ps=0u w=2e+06u l=1e+06u
X160 a_n78463_48770# a_n78463_48770# vss vss sky130_fd_pr__nfet_01v8_lvt ad=0p pd=0u as=0p ps=0u w=1e+06u l=1e+06u
X161 dvdd vn_p out_n dvdd sky130_fd_pr__pfet_01v8 ad=0p pd=0u as=0p ps=0u w=4e+06u l=150000u
X162 dvdd a_n21974_78024# a_n16362_71100# dvdd sky130_fd_pr__pfet_01v8 ad=0p pd=0u as=0p ps=0u w=5e+06u l=150000u
X163 out_n vn_p dvdd dvdd sky130_fd_pr__pfet_01v8 ad=0p pd=0u as=0p ps=0u w=4e+06u l=150000u
X164 dvdd vn_p out_n dvdd sky130_fd_pr__pfet_01v8 ad=0p pd=0u as=0p ps=0u w=4e+06u l=150000u
X165 out_n vn_p dvdd dvdd sky130_fd_pr__pfet_01v8 ad=0p pd=0u as=0p ps=0u w=4e+06u l=150000u
X166 out_n vn_p dvdd dvdd sky130_fd_pr__pfet_01v8 ad=0p pd=0u as=0p ps=0u w=4e+06u l=150000u
X167 out_p vp_n vss vss sky130_fd_pr__nfet_01v8 ad=0p pd=0u as=0p ps=0u w=4e+06u l=150000u
X168 avdd a_n91733_42923# w_n78659_43954# avdd sky130_fd_pr__pfet_01v8_lvt ad=0p pd=0u as=0p ps=0u w=2e+06u l=1e+06u
X169 a_n16362_6492# a_n21974_3362# dvdd dvdd sky130_fd_pr__pfet_01v8 ad=0p pd=0u as=0p ps=0u w=5e+06u l=150000u
X170 a_n16362_71100# a_n21974_78024# dvdd dvdd sky130_fd_pr__pfet_01v8 ad=0p pd=0u as=0p ps=0u w=5e+06u l=150000u
X171 dvdd vp_p out_p dvdd sky130_fd_pr__pfet_01v8 ad=0p pd=0u as=0p ps=0u w=4e+06u l=150000u
X172 out_n vn_p dvdd dvdd sky130_fd_pr__pfet_01v8 ad=0p pd=0u as=0p ps=0u w=4e+06u l=150000u
X173 out_p vp_p dvdd dvdd sky130_fd_pr__pfet_01v8 ad=0p pd=0u as=0p ps=0u w=4e+06u l=150000u
X174 out_p vp_p dvdd dvdd sky130_fd_pr__pfet_01v8 ad=0p pd=0u as=0p ps=0u w=4e+06u l=150000u
X175 out_n vn_p dvdd dvdd sky130_fd_pr__pfet_01v8 ad=0p pd=0u as=0p ps=0u w=4e+06u l=150000u
X176 out_p vp_n vss vss sky130_fd_pr__nfet_01v8 ad=0p pd=0u as=0p ps=0u w=4e+06u l=150000u
X177 out_p vp_p dvdd dvdd sky130_fd_pr__pfet_01v8 ad=0p pd=0u as=0p ps=0u w=4e+06u l=150000u
X178 a_n91733_44067# iin_15u vss vss sky130_fd_pr__nfet_01v8_lvt ad=0p pd=0u as=0p ps=0u w=4e+06u l=2e+06u
X179 dvdd vn_p out_n dvdd sky130_fd_pr__pfet_01v8 ad=0p pd=0u as=0p ps=0u w=4e+06u l=150000u
X180 out_p vp_p dvdd dvdd sky130_fd_pr__pfet_01v8 ad=0p pd=0u as=0p ps=0u w=4e+06u l=150000u
X181 dvdd vss sky130_fd_pr__cap_mim_m3_2 l=3e+07u w=3e+07u
X182 out_n vn_p dvdd dvdd sky130_fd_pr__pfet_01v8 ad=0p pd=0u as=0p ps=0u w=4e+06u l=150000u
X183 dvdd vn_p out_n dvdd sky130_fd_pr__pfet_01v8 ad=0p pd=0u as=0p ps=0u w=4e+06u l=150000u
X184 dvdd vn_p out_n dvdd sky130_fd_pr__pfet_01v8 ad=0p pd=0u as=0p ps=0u w=4e+06u l=150000u
X185 out_n vn_p dvdd dvdd sky130_fd_pr__pfet_01v8 ad=0p pd=0u as=0p ps=0u w=4e+06u l=150000u
X186 out_n vn_p dvdd dvdd sky130_fd_pr__pfet_01v8 ad=0p pd=0u as=0p ps=0u w=4e+06u l=150000u
X187 a_n65384_39513# a_n91733_41779# avdd avdd sky130_fd_pr__pfet_01v8_lvt ad=0p pd=0u as=0p ps=0u w=2e+06u l=1e+06u
X188 dvdd a_n19274_79650# a_n22132_76606# dvdd sky130_fd_pr__pfet_01v8 ad=0p pd=0u as=0p ps=0u w=5e+06u l=150000u
X189 dvdd vp_p out_p dvdd sky130_fd_pr__pfet_01v8 ad=0p pd=0u as=0p ps=0u w=4e+06u l=150000u
X190 out_n vn_n vss vss sky130_fd_pr__nfet_01v8 ad=0p pd=0u as=0p ps=0u w=4e+06u l=150000u
X191 dvdd vp_p out_p dvdd sky130_fd_pr__pfet_01v8 ad=0p pd=0u as=0p ps=0u w=4e+06u l=150000u
X192 out_n vn_p dvdd dvdd sky130_fd_pr__pfet_01v8 ad=0p pd=0u as=0p ps=0u w=4e+06u l=150000u
X193 vcmp_p a_n91733_45211# avdd avdd sky130_fd_pr__pfet_01v8_lvt ad=0p pd=0u as=0p ps=0u w=2e+06u l=1e+06u
X194 a_n62068_35385# a_n63012_35297# vss vss sky130_fd_pr__nfet_01v8_lvt ad=0p pd=0u as=0p ps=0u w=1e+06u l=1e+06u
X195 vss vp_n out_p vss sky130_fd_pr__nfet_01v8 ad=0p pd=0u as=0p ps=0u w=4e+06u l=150000u
X196 out_n vn_p dvdd dvdd sky130_fd_pr__pfet_01v8 ad=0p pd=0u as=0p ps=0u w=4e+06u l=150000u
X197 a_n91733_44067# a_n91733_44067# avdd avdd sky130_fd_pr__pfet_01v8_lvt ad=0p pd=0u as=0p ps=0u w=2e+06u l=1e+06u
X198 vcmp_p a_n47381_57011# vss vss sky130_fd_pr__nfet_01v8_lvt ad=0p pd=0u as=0p ps=0u w=1e+06u l=1e+06u
X199 out_p vp_p dvdd dvdd sky130_fd_pr__pfet_01v8 ad=0p pd=0u as=0p ps=0u w=4e+06u l=150000u
X200 vss a_n64397_56923# a_n63453_57011# vss sky130_fd_pr__nfet_01v8_lvt ad=0p pd=0u as=0p ps=0u w=1e+06u l=1e+06u
X201 out_n vn_p dvdd dvdd sky130_fd_pr__pfet_01v8 ad=0p pd=0u as=0p ps=0u w=4e+06u l=150000u
X202 vin_p a_n91733_42923# avdd avdd sky130_fd_pr__pfet_01v8_lvt ad=0p pd=0u as=0p ps=0u w=2e+06u l=1e+06u
X203 iin_15u vss sky130_fd_pr__cap_mim_m3_2 l=3e+07u w=3e+07u
X204 dvdd vn_p out_n dvdd sky130_fd_pr__pfet_01v8 ad=0p pd=0u as=0p ps=0u w=4e+06u l=150000u
X205 dvdd vss sky130_fd_pr__cap_mim_m3_2 l=3e+07u w=3e+07u
X206 dvdd vn_p out_n dvdd sky130_fd_pr__pfet_01v8 ad=0p pd=0u as=0p ps=0u w=4e+06u l=150000u
X207 dvdd vn_p out_n dvdd sky130_fd_pr__pfet_01v8 ad=0p pd=0u as=0p ps=0u w=4e+06u l=150000u
X208 out_n vn_p dvdd dvdd sky130_fd_pr__pfet_01v8 ad=0p pd=0u as=0p ps=0u w=4e+06u l=150000u
X209 out_p vp_n vss vss sky130_fd_pr__nfet_01v8 ad=0p pd=0u as=0p ps=0u w=4e+06u l=150000u
X210 dvdd vss sky130_fd_pr__cap_mim_m3_2 l=3e+07u w=3e+07u
X211 out_n vn_p dvdd dvdd sky130_fd_pr__pfet_01v8 ad=0p pd=0u as=0p ps=0u w=4e+06u l=150000u
X212 out_p vp_n vss vss sky130_fd_pr__nfet_01v8 ad=0p pd=0u as=0p ps=0u w=4e+06u l=150000u
X213 dvdd vp_p out_p dvdd sky130_fd_pr__pfet_01v8 ad=0p pd=0u as=0p ps=0u w=4e+06u l=150000u
X214 out_p vp_p dvdd dvdd sky130_fd_pr__pfet_01v8 ad=0p pd=0u as=0p ps=0u w=4e+06u l=150000u
X215 dvdd vn_p out_n dvdd sky130_fd_pr__pfet_01v8 ad=0p pd=0u as=0p ps=0u w=4e+06u l=150000u
X216 w_n64593_18071# a_n68715_22497# a_n64397_22887# w_n64593_18071# sky130_fd_pr__pfet_01v8_lvt ad=0p pd=0u as=0p ps=0u w=4e+06u l=1e+06u
X217 out_p vp_p dvdd dvdd sky130_fd_pr__pfet_01v8 ad=0p pd=0u as=0p ps=0u w=4e+06u l=150000u
X218 dvdd vp_p out_p dvdd sky130_fd_pr__pfet_01v8 ad=0p pd=0u as=0p ps=0u w=4e+06u l=150000u
X219 out_p vp_p dvdd dvdd sky130_fd_pr__pfet_01v8 ad=0p pd=0u as=0p ps=0u w=4e+06u l=150000u
X220 dvdd vp_p out_p dvdd sky130_fd_pr__pfet_01v8 ad=0p pd=0u as=0p ps=0u w=4e+06u l=150000u
X221 vss vn_n out_n vss sky130_fd_pr__nfet_01v8 ad=0p pd=0u as=0p ps=0u w=4e+06u l=150000u
X222 iin_15u vss sky130_fd_pr__cap_mim_m3_2 l=3e+07u w=3e+07u
X223 dvdd vn_p out_n dvdd sky130_fd_pr__pfet_01v8 ad=0p pd=0u as=0p ps=0u w=4e+06u l=150000u
X224 a_n59836_35385# a_n62068_35385# vss vss sky130_fd_pr__nfet_01v8_lvt ad=0p pd=0u as=0p ps=0u w=1e+06u l=1e+06u
X225 dvdd vp_p out_p dvdd sky130_fd_pr__pfet_01v8 ad=0p pd=0u as=0p ps=0u w=4e+06u l=150000u
X226 out_p vp_n vss vss sky130_fd_pr__nfet_01v8 ad=0p pd=0u as=0p ps=0u w=4e+06u l=150000u
X227 out_n vn_p dvdd dvdd sky130_fd_pr__pfet_01v8 ad=0p pd=0u as=0p ps=0u w=4e+06u l=150000u
X228 dvdd vp_p out_p dvdd sky130_fd_pr__pfet_01v8 ad=0p pd=0u as=0p ps=0u w=4e+06u l=150000u
X229 out_p vp_p dvdd dvdd sky130_fd_pr__pfet_01v8 ad=0p pd=0u as=0p ps=0u w=4e+06u l=150000u
X230 out_n vn_p dvdd dvdd sky130_fd_pr__pfet_01v8 ad=0p pd=0u as=0p ps=0u w=4e+06u l=150000u
X231 dvdd vp_p out_p dvdd sky130_fd_pr__pfet_01v8 ad=0p pd=0u as=0p ps=0u w=4e+06u l=150000u
X232 avdd vss sky130_fd_pr__cap_mim_m3_2 l=3e+07u w=3e+07u
X233 out_n vn_p dvdd dvdd sky130_fd_pr__pfet_01v8 ad=0p pd=0u as=0p ps=0u w=4e+06u l=150000u
X234 out_p vp_p dvdd dvdd sky130_fd_pr__pfet_01v8 ad=0p pd=0u as=0p ps=0u w=4e+06u l=150000u
X235 dvdd vp_p out_p dvdd sky130_fd_pr__pfet_01v8 ad=0p pd=0u as=0p ps=0u w=4e+06u l=150000u
X236 a_n65384_39513# a_n48544_35385# vss vss sky130_fd_pr__nfet_01v8_lvt ad=0p pd=0u as=0p ps=0u w=1e+06u l=1e+06u
X237 dvdd vn_p out_n dvdd sky130_fd_pr__pfet_01v8 ad=0p pd=0u as=0p ps=0u w=4e+06u l=150000u
X238 out_p vp_p dvdd dvdd sky130_fd_pr__pfet_01v8 ad=0p pd=0u as=0p ps=0u w=4e+06u l=150000u
X239 dvdd vn_p out_n dvdd sky130_fd_pr__pfet_01v8 ad=0p pd=0u as=0p ps=0u w=4e+06u l=150000u
X240 out_n vn_n vss vss sky130_fd_pr__nfet_01v8 ad=0p pd=0u as=0p ps=0u w=4e+06u l=150000u
X241 out_n vn_p dvdd dvdd sky130_fd_pr__pfet_01v8 ad=0p pd=0u as=0p ps=0u w=4e+06u l=150000u
X242 dvdd vp_p out_p dvdd sky130_fd_pr__pfet_01v8 ad=0p pd=0u as=0p ps=0u w=4e+06u l=150000u
X243 dvdd vn_p out_n dvdd sky130_fd_pr__pfet_01v8 ad=0p pd=0u as=0p ps=0u w=4e+06u l=150000u
X244 out_n vn_p dvdd dvdd sky130_fd_pr__pfet_01v8 ad=0p pd=0u as=0p ps=0u w=4e+06u l=150000u
X245 out_n vn_p dvdd dvdd sky130_fd_pr__pfet_01v8 ad=0p pd=0u as=0p ps=0u w=4e+06u l=150000u
X246 out_n vn_p dvdd dvdd sky130_fd_pr__pfet_01v8 ad=0p pd=0u as=0p ps=0u w=4e+06u l=150000u
X247 vp_p a_n16362_71100# dvdd dvdd sky130_fd_pr__pfet_01v8 ad=0p pd=0u as=0p ps=0u w=5e+06u l=150000u
X248 vss a_n63453_57011# a_n61221_57011# vss sky130_fd_pr__nfet_01v8_lvt ad=0p pd=0u as=0p ps=0u w=1e+06u l=1e+06u
X249 a_n47381_18289# a_n61221_22975# w_n48521_18070# w_n48521_18070# sky130_fd_pr__pfet_01v8_lvt ad=0p pd=0u as=0p ps=0u w=4e+06u l=1e+06u
X250 out_p vp_p dvdd dvdd sky130_fd_pr__pfet_01v8 ad=0p pd=0u as=0p ps=0u w=4e+06u l=150000u
X251 out_p vp_p dvdd dvdd sky130_fd_pr__pfet_01v8 ad=0p pd=0u as=0p ps=0u w=4e+06u l=150000u
X252 out_n vn_p dvdd dvdd sky130_fd_pr__pfet_01v8 ad=0p pd=0u as=0p ps=0u w=4e+06u l=150000u
X253 a_n16362_6492# a_n21974_3362# dvdd dvdd sky130_fd_pr__pfet_01v8 ad=0p pd=0u as=0p ps=0u w=5e+06u l=150000u
X254 out_n vn_p dvdd dvdd sky130_fd_pr__pfet_01v8 ad=0p pd=0u as=0p ps=0u w=4e+06u l=150000u
X255 vcmp_p a_n91733_45211# avdd avdd sky130_fd_pr__pfet_01v8_lvt ad=0p pd=0u as=0p ps=0u w=2e+06u l=1e+06u
X256 dvdd vp_p out_p dvdd sky130_fd_pr__pfet_01v8 ad=0p pd=0u as=0p ps=0u w=4e+06u l=150000u
X257 vn_p a_n16362_6492# dvdd dvdd sky130_fd_pr__pfet_01v8 ad=0p pd=0u as=0p ps=0u w=5e+06u l=150000u
X258 a_n61221_22975# a_n91733_37203# avdd avdd sky130_fd_pr__pfet_01v8_lvt ad=0p pd=0u as=0p ps=0u w=2e+06u l=1e+06u
X259 avdd a_n91733_44067# a_n61221_57011# avdd sky130_fd_pr__pfet_01v8_lvt ad=0p pd=0u as=0p ps=0u w=2e+06u l=1e+06u
X260 out_p vp_p dvdd dvdd sky130_fd_pr__pfet_01v8 ad=0p pd=0u as=0p ps=0u w=4e+06u l=150000u
X261 dvdd vn_p out_n dvdd sky130_fd_pr__pfet_01v8 ad=0p pd=0u as=0p ps=0u w=4e+06u l=150000u
X262 avdd a_n91733_36059# w_n48521_18070# avdd sky130_fd_pr__pfet_01v8_lvt ad=0p pd=0u as=0p ps=0u w=2e+06u l=1e+06u
X263 vp_p a_n16362_71100# dvdd dvdd sky130_fd_pr__pfet_01v8 ad=0p pd=0u as=0p ps=0u w=5e+06u l=150000u
X264 dvdd vp_p out_p dvdd sky130_fd_pr__pfet_01v8 ad=0p pd=0u as=0p ps=0u w=4e+06u l=150000u
X265 vss dvdd sky130_fd_pr__cap_mim_m3_2 l=1.6e+07u w=1.6e+07u
X266 dvdd vss sky130_fd_pr__cap_mim_m3_2 l=3e+07u w=3e+07u
X267 out_p vp_n vss vss sky130_fd_pr__nfet_01v8 ad=0p pd=0u as=0p ps=0u w=4e+06u l=150000u
X268 dvdd vp_p out_p dvdd sky130_fd_pr__pfet_01v8 ad=0p pd=0u as=0p ps=0u w=4e+06u l=150000u
X269 vss vn_n out_n vss sky130_fd_pr__nfet_01v8 ad=0p pd=0u as=0p ps=0u w=4e+06u l=150000u
X270 out_p vp_p dvdd dvdd sky130_fd_pr__pfet_01v8 ad=0p pd=0u as=0p ps=0u w=4e+06u l=150000u
X271 dvdd vn_p out_n dvdd sky130_fd_pr__pfet_01v8 ad=0p pd=0u as=0p ps=0u w=4e+06u l=150000u
X272 vss a_n48325_22886# a_n48325_22886# vss sky130_fd_pr__nfet_01v8_lvt ad=0p pd=0u as=0p ps=0u w=1e+06u l=1e+06u
X273 out_p vp_p dvdd dvdd sky130_fd_pr__pfet_01v8 ad=0p pd=0u as=0p ps=0u w=4e+06u l=150000u
X274 vss vp_n out_p vss sky130_fd_pr__nfet_01v8 ad=0p pd=0u as=0p ps=0u w=4e+06u l=150000u
X275 dvdd vss sky130_fd_pr__cap_mim_m3_2 l=3e+07u w=3e+07u
X276 out_n vn_p dvdd dvdd sky130_fd_pr__pfet_01v8 ad=0p pd=0u as=0p ps=0u w=4e+06u l=150000u
X277 out_n vn_n vss vss sky130_fd_pr__nfet_01v8 ad=0p pd=0u as=0p ps=0u w=4e+06u l=150000u
X278 dvdd vn_p out_n dvdd sky130_fd_pr__pfet_01v8 ad=0p pd=0u as=0p ps=0u w=4e+06u l=150000u
X279 w_n63208_37397# vref a_n62068_35385# w_n63208_37397# sky130_fd_pr__pfet_01v8_lvt ad=0p pd=0u as=0p ps=0u w=4e+06u l=1e+06u
X280 dvdd vp_p out_p dvdd sky130_fd_pr__pfet_01v8 ad=0p pd=0u as=0p ps=0u w=4e+06u l=150000u
X281 dvdd vn_p out_n dvdd sky130_fd_pr__pfet_01v8 ad=0p pd=0u as=0p ps=0u w=4e+06u l=150000u
X282 dvdd vp_p out_p dvdd sky130_fd_pr__pfet_01v8 ad=0p pd=0u as=0p ps=0u w=4e+06u l=150000u
X283 iin_15u vss sky130_fd_pr__cap_mim_m3_2 l=3e+07u w=3e+07u
X284 a_n59836_35385# a_n62068_35385# vss vss sky130_fd_pr__nfet_01v8_lvt ad=0p pd=0u as=0p ps=0u w=1e+06u l=1e+06u
X285 dvdd vp_p out_p dvdd sky130_fd_pr__pfet_01v8 ad=0p pd=0u as=0p ps=0u w=4e+06u l=150000u
X286 out_n vn_p dvdd dvdd sky130_fd_pr__pfet_01v8 ad=0p pd=0u as=0p ps=0u w=4e+06u l=150000u
X287 out_n vn_p dvdd dvdd sky130_fd_pr__pfet_01v8 ad=0p pd=0u as=0p ps=0u w=4e+06u l=150000u
X288 a_n68715_23451# a_n67283_23133# vss sky130_fd_pr__res_xhigh_po w=350000u l=5e+06u
X289 out_p vp_p dvdd dvdd sky130_fd_pr__pfet_01v8 ad=0p pd=0u as=0p ps=0u w=4e+06u l=150000u
X290 out_n vn_p dvdd dvdd sky130_fd_pr__pfet_01v8 ad=0p pd=0u as=0p ps=0u w=4e+06u l=150000u
X291 dvdd vss sky130_fd_pr__cap_mim_m3_2 l=3e+07u w=3e+07u
X292 dvdd vn_p out_n dvdd sky130_fd_pr__pfet_01v8 ad=0p pd=0u as=0p ps=0u w=4e+06u l=150000u
X293 a_n65384_39513# a_n91733_41779# avdd avdd sky130_fd_pr__pfet_01v8_lvt ad=0p pd=0u as=0p ps=0u w=2e+06u l=1e+06u
X294 dvdd vn_p out_n dvdd sky130_fd_pr__pfet_01v8 ad=0p pd=0u as=0p ps=0u w=4e+06u l=150000u
X295 a_n65384_39513# a_n48544_35385# vss vss sky130_fd_pr__nfet_01v8_lvt ad=0p pd=0u as=0p ps=0u w=1e+06u l=1e+06u
X296 a_n59836_35385# a_n62068_35385# vss vss sky130_fd_pr__nfet_01v8_lvt ad=0p pd=0u as=0p ps=0u w=1e+06u l=1e+06u
X297 out_p vp_p dvdd dvdd sky130_fd_pr__pfet_01v8 ad=0p pd=0u as=0p ps=0u w=4e+06u l=150000u
X298 dvdd vp_p out_p dvdd sky130_fd_pr__pfet_01v8 ad=0p pd=0u as=0p ps=0u w=4e+06u l=150000u
X299 out_p vp_n vss vss sky130_fd_pr__nfet_01v8 ad=0p pd=0u as=0p ps=0u w=4e+06u l=150000u
X300 dvdd vn_p out_n dvdd sky130_fd_pr__pfet_01v8 ad=0p pd=0u as=0p ps=0u w=4e+06u l=150000u
X301 dvdd a_n16362_6492# vn_p dvdd sky130_fd_pr__pfet_01v8 ad=0p pd=0u as=0p ps=0u w=5e+06u l=150000u
X302 vss a_n63453_57011# a_n61221_57011# vss sky130_fd_pr__nfet_01v8_lvt ad=0p pd=0u as=0p ps=0u w=1e+06u l=1e+06u
X303 w_n64593_59023# a_n91733_44067# avdd avdd sky130_fd_pr__pfet_01v8_lvt ad=0p pd=0u as=0p ps=0u w=2e+06u l=1e+06u
X304 avdd vss sky130_fd_pr__cap_mim_m3_2 l=3e+07u w=3e+07u
X305 avdd vss sky130_fd_pr__cap_mim_m3_2 l=3e+07u w=3e+07u
X306 dvdd vn_p out_n dvdd sky130_fd_pr__pfet_01v8 ad=0p pd=0u as=0p ps=0u w=4e+06u l=150000u