* NGSPICE file created from dead_time_post.ext - technology: sky130A

.subckt dead_time_post vin vp vn vss vdd
X0 nand_1/out vss sky130_fd_pr__cap_mim_m3_1 l=0u w=0u
X1 vss.t38 vn1.t3 vn2.t11 vss sky130_fd_pr__nfet_01v8 ad=0p pd=0u as=0p ps=0u w=5e+06u l=150000u
X2 vp.t159 vp3.t54 vdd.t206 vdd sky130_fd_pr__pfet_01v8 ad=0p pd=0u as=0p ps=0u w=5e+06u l=150000u
X3 nand_1/out vss sky130_fd_pr__cap_mim_m3_1 l=0u w=0u
X4 vdd.t220 vp2.t12 vp3.t0 vdd sky130_fd_pr__pfet_01v8 ad=0p pd=0u as=0p ps=0u w=5e+06u l=150000u
X5 vdd.t205 vp3.t55 vp.t158 vdd sky130_fd_pr__pfet_01v8 ad=0p pd=0u as=0p ps=0u w=5e+06u l=150000u
X6 vdd.t204 vp3.t56 vp.t157 vdd sky130_fd_pr__pfet_01v8 ad=0p pd=0u as=0p ps=0u w=5e+06u l=150000u
X7 vdd.t203 vp3.t57 vp.t156 vdd sky130_fd_pr__pfet_01v8 ad=0p pd=0u as=0p ps=0u w=5e+06u l=150000u
X8 nand_1/out vss sky130_fd_pr__cap_mim_m3_1 l=1.775e+07u w=1.775e+07u
X9 vp.t239 vp3.t58 vss.t114 vss sky130_fd_pr__nfet_01v8 ad=0p pd=0u as=0p ps=0u w=5e+06u l=150000u
X10 vdd.t202 vp3.t59 vp.t155 vdd sky130_fd_pr__pfet_01v8 ad=0p pd=0u as=0p ps=0u w=5e+06u l=150000u
X11 vp3.t1 vp2.t13 vdd.t221 vdd sky130_fd_pr__pfet_01v8 ad=0p pd=0u as=0p ps=0u w=5e+06u l=150000u
X12 vn2.t7 vn1.t4 vdd.t45 vdd sky130_fd_pr__pfet_01v8 ad=0p pd=0u as=0p ps=0u w=5e+06u l=150000u
X13 vdd.t201 vp3.t60 vp.t154 vdd sky130_fd_pr__pfet_01v8 ad=0p pd=0u as=0p ps=0u w=5e+06u l=150000u
X14 nand_0/out vss sky130_fd_pr__cap_mim_m3_1 l=0u w=0u
X15 nand_1/out vss sky130_fd_pr__cap_mim_m3_1 l=0u w=0u
X16 vss.t34 vn2.t12 vn.t53 vss sky130_fd_pr__nfet_01v8 ad=0p pd=0u as=0p ps=0u w=5e+06u l=150000u
X17 vp.t153 vp3.t61 vdd.t200 vdd sky130_fd_pr__pfet_01v8 ad=0p pd=0u as=0p ps=0u w=5e+06u l=150000u
X18 vss.t115 vp3.t62 vp.t238 vss sky130_fd_pr__nfet_01v8 ad=0p pd=0u as=0p ps=0u w=5e+06u l=150000u
X19 vdd.t37 vn2.t13 vn.t35 vdd sky130_fd_pr__pfet_01v8 ad=0p pd=0u as=0p ps=0u w=5e+06u l=150000u
X20 vp.t152 vp3.t63 vdd.t199 vdd sky130_fd_pr__pfet_01v8 ad=0p pd=0u as=0p ps=0u w=5e+06u l=150000u
X21 vss.t33 vn2.t14 vn.t52 vss sky130_fd_pr__nfet_01v8 ad=0p pd=0u as=0p ps=0u w=5e+06u l=150000u
X22 vn2.t10 vn1.t5 vss.t37 vss sky130_fd_pr__nfet_01v8 ad=0p pd=0u as=0p ps=0u w=5e+06u l=150000u
X23 vp.t151 vp3.t64 vdd.t198 vdd sky130_fd_pr__pfet_01v8 ad=0p pd=0u as=0p ps=0u w=5e+06u l=150000u
X24 vdd.t197 vp3.t65 vp.t150 vdd sky130_fd_pr__pfet_01v8 ad=0p pd=0u as=0p ps=0u w=5e+06u l=150000u
X25 nand_0/out vss sky130_fd_pr__cap_mim_m3_1 l=0u w=0u
X26 vdd.t222 vp2.t14 vp3.t2 vdd sky130_fd_pr__pfet_01v8 ad=0p pd=0u as=0p ps=0u w=5e+06u l=150000u
X27 vdd.t196 vp3.t66 vp.t149 vdd sky130_fd_pr__pfet_01v8 ad=0p pd=0u as=0p ps=0u w=5e+06u l=150000u
X28 nand_1/out vss sky130_fd_pr__cap_mim_m3_1 l=0u w=0u
X29 nand_0/out vss sky130_fd_pr__cap_mim_m3_1 l=0u w=0u
X30 nand_1/out vss sky130_fd_pr__cap_mim_m3_1 l=0u w=0u
X31 vdd.t195 vp3.t67 vp.t148 vdd sky130_fd_pr__pfet_01v8 ad=0p pd=0u as=0p ps=0u w=5e+06u l=150000u
X32 vdd.t223 vp2.t15 nand_0/out.t1 vdd sky130_fd_pr__pfet_01v8 ad=0p pd=0u as=0p ps=0u w=2e+06u l=150000u
X33 nand_1/out vss sky130_fd_pr__cap_mim_m3_1 l=0u w=0u
X34 vp3.t3 vp2.t16 vss.t63 vss sky130_fd_pr__nfet_01v8 ad=0p pd=0u as=0p ps=0u w=5e+06u l=150000u
X35 vss.t116 vp3.t68 vp.t237 vss sky130_fd_pr__nfet_01v8 ad=0p pd=0u as=0p ps=0u w=5e+06u l=150000u
X36 vdd.t36 vn2.t15 vn.t34 vdd sky130_fd_pr__pfet_01v8 ad=0p pd=0u as=0p ps=0u w=5e+06u l=150000u
X37 vp.t147 vp3.t69 vdd.t194 vdd sky130_fd_pr__pfet_01v8 ad=0p pd=0u as=0p ps=0u w=5e+06u l=150000u
X38 vn.t33 vn2.t16 vdd.t35 vdd sky130_fd_pr__pfet_01v8 ad=0p pd=0u as=0p ps=0u w=5e+06u l=150000u
X39 vp2.t0 vp1.t3 vss.t57 vss sky130_fd_pr__nfet_01v8 ad=0p pd=0u as=0p ps=0u w=5e+06u l=150000u
X40 vp.t236 vp3.t70 vss.t117 vss sky130_fd_pr__nfet_01v8 ad=0p pd=0u as=0p ps=0u w=5e+06u l=150000u
X41 vdd.t34 vn2.t17 vn.t32 vdd sky130_fd_pr__pfet_01v8 ad=0p pd=0u as=0p ps=0u w=5e+06u l=150000u
X42 vp3.t4 vp2.t17 vdd.t224 vdd sky130_fd_pr__pfet_01v8 ad=0p pd=0u as=0p ps=0u w=5e+06u l=150000u
X43 vp.t146 vp3.t71 vdd.t193 vdd sky130_fd_pr__pfet_01v8 ad=0p pd=0u as=0p ps=0u w=5e+06u l=150000u
X44 vp2.t1 vp1.t4 vdd.t209 vdd sky130_fd_pr__pfet_01v8 ad=0p pd=0u as=0p ps=0u w=5e+06u l=150000u
X45 nand_0/out vss sky130_fd_pr__cap_mim_m3_1 l=1.775e+07u w=1.775e+07u
X46 vp.t145 vp3.t72 vdd.t192 vdd sky130_fd_pr__pfet_01v8 ad=0p pd=0u as=0p ps=0u w=5e+06u l=150000u
X47 vp.t144 vp3.t73 vdd.t191 vdd sky130_fd_pr__pfet_01v8 ad=0p pd=0u as=0p ps=0u w=5e+06u l=150000u
X48 vn.t51 vn2.t18 vss.t32 vss sky130_fd_pr__nfet_01v8 ad=0p pd=0u as=0p ps=0u w=5e+06u l=150000u
X49 vp.t235 vp3.t74 vss.t118 vss sky130_fd_pr__nfet_01v8 ad=0p pd=0u as=0p ps=0u w=5e+06u l=150000u
X50 vdd.t225 vp2.t18 vp3.t5 vdd sky130_fd_pr__pfet_01v8 ad=0p pd=0u as=0p ps=0u w=5e+06u l=150000u
X51 vdd.t190 vp3.t75 vp.t143 vdd sky130_fd_pr__pfet_01v8 ad=0p pd=0u as=0p ps=0u w=5e+06u l=150000u
X52 nand_0/out vss sky130_fd_pr__cap_mim_m3_1 l=0u w=0u
X53 vdd.t189 vp3.t76 vp.t142 vdd sky130_fd_pr__pfet_01v8 ad=0p pd=0u as=0p ps=0u w=5e+06u l=150000u
X54 vdd.t188 vp3.t77 vp.t141 vdd sky130_fd_pr__pfet_01v8 ad=0p pd=0u as=0p ps=0u w=5e+06u l=150000u
X55 nand_1/out vss sky130_fd_pr__cap_mim_m3_1 l=0u w=0u
X56 nand_0/out vss sky130_fd_pr__cap_mim_m3_1 l=1.775e+07u w=1.775e+07u
X57 vdd.t187 vp3.t78 vp.t140 vdd sky130_fd_pr__pfet_01v8 ad=0p pd=0u as=0p ps=0u w=5e+06u l=150000u
X58 vdd.t226 vp2.t19 vp3.t6 vdd sky130_fd_pr__pfet_01v8 ad=0p pd=0u as=0p ps=0u w=5e+06u l=150000u
X59 vss.t119 vp3.t79 vp.t234 vss sky130_fd_pr__nfet_01v8 ad=0p pd=0u as=0p ps=0u w=5e+06u l=150000u
X60 vdd.t227 vp2.t20 vp3.t7 vdd sky130_fd_pr__pfet_01v8 ad=0p pd=0u as=0p ps=0u w=5e+06u l=150000u
X61 vp.t139 vp3.t80 vdd.t186 vdd sky130_fd_pr__pfet_01v8 ad=0p pd=0u as=0p ps=0u w=5e+06u l=150000u
X62 vss.t120 vp3.t81 vp.t233 vss sky130_fd_pr__nfet_01v8 ad=0p pd=0u as=0p ps=0u w=5e+06u l=150000u
X63 vp.t232 vp3.t82 vss.t121 vss sky130_fd_pr__nfet_01v8 ad=0p pd=0u as=0p ps=0u w=5e+06u l=150000u
X64 vp3.t8 vp2.t21 vss.t64 vss sky130_fd_pr__nfet_01v8 ad=0p pd=0u as=0p ps=0u w=5e+06u l=150000u
X65 vp3.t9 vp2.t22 vdd.t228 vdd sky130_fd_pr__pfet_01v8 ad=0p pd=0u as=0p ps=0u w=5e+06u l=150000u
X66 vn.t31 vn2.t19 vdd.t33 vdd sky130_fd_pr__pfet_01v8 ad=0p pd=0u as=0p ps=0u w=5e+06u l=150000u
X67 vn.t50 vn2.t20 vss.t31 vss sky130_fd_pr__nfet_01v8 ad=0p pd=0u as=0p ps=0u w=5e+06u l=150000u
X68 vdd.t185 vp3.t83 vp.t138 vdd sky130_fd_pr__pfet_01v8 ad=0p pd=0u as=0p ps=0u w=5e+06u l=150000u
X69 vp.t231 vp3.t84 vss.t122 vss sky130_fd_pr__nfet_01v8 ad=0p pd=0u as=0p ps=0u w=5e+06u l=150000u
X70 vss.t123 vp3.t85 vp.t230 vss sky130_fd_pr__nfet_01v8 ad=0p pd=0u as=0p ps=0u w=5e+06u l=150000u
X71 vp2.t2 vp1.t5 vdd.t210 vdd sky130_fd_pr__pfet_01v8 ad=0p pd=0u as=0p ps=0u w=5e+06u l=150000u
X72 vp.t229 vp3.t86 vss.t124 vss sky130_fd_pr__nfet_01v8 ad=0p pd=0u as=0p ps=0u w=5e+06u l=150000u
X73 vn.t30 vn2.t21 vdd.t32 vdd sky130_fd_pr__pfet_01v8 ad=0p pd=0u as=0p ps=0u w=5e+06u l=150000u
X74 vp.t137 vp3.t87 vdd.t184 vdd sky130_fd_pr__pfet_01v8 ad=0p pd=0u as=0p ps=0u w=5e+06u l=150000u
X75 vss.t65 vp2.t23 vp3.t10 vss sky130_fd_pr__nfet_01v8 ad=0p pd=0u as=0p ps=0u w=5e+06u l=150000u
X76 vp.t136 vp3.t88 vdd.t183 vdd sky130_fd_pr__pfet_01v8 ad=0p pd=0u as=0p ps=0u w=5e+06u l=150000u
X77 vdd.t229 vp2.t24 vp3.t11 vdd sky130_fd_pr__pfet_01v8 ad=0p pd=0u as=0p ps=0u w=5e+06u l=150000u
X78 vdd.t182 vp3.t89 vp.t135 vdd sky130_fd_pr__pfet_01v8 ad=0p pd=0u as=0p ps=0u w=5e+06u l=150000u
X79 vdd.t181 vp3.t90 vp.t134 vdd sky130_fd_pr__pfet_01v8 ad=0p pd=0u as=0p ps=0u w=5e+06u l=150000u
X80 vdd.t180 vp3.t91 vp.t133 vdd sky130_fd_pr__pfet_01v8 ad=0p pd=0u as=0p ps=0u w=5e+06u l=150000u
X81 nand_0/out.t2 vp2.t25 a_n80_n460# vss sky130_fd_pr__nfet_01v8 ad=0p pd=0u as=0p ps=0u w=2e+06u l=150000u
X82 vp.t132 vp3.t92 vdd.t179 vdd sky130_fd_pr__pfet_01v8 ad=0p pd=0u as=0p ps=0u w=5e+06u l=150000u
X83 vp3.t12 vp2.t26 vdd.t230 vdd sky130_fd_pr__pfet_01v8 ad=0p pd=0u as=0p ps=0u w=5e+06u l=150000u
X84 vss.t125 vp3.t93 vp.t228 vss sky130_fd_pr__nfet_01v8 ad=0p pd=0u as=0p ps=0u w=5e+06u l=150000u
X85 vdd.t31 vn2.t22 vn.t29 vdd sky130_fd_pr__pfet_01v8 ad=0p pd=0u as=0p ps=0u w=5e+06u l=150000u
X86 nand_1/out vss sky130_fd_pr__cap_mim_m3_1 l=1.775e+07u w=1.775e+07u
X87 vp.t131 vp3.t94 vdd.t178 vdd sky130_fd_pr__pfet_01v8 ad=0p pd=0u as=0p ps=0u w=5e+06u l=150000u
X88 vp.t227 vp3.t95 vss.t126 vss sky130_fd_pr__nfet_01v8 ad=0p pd=0u as=0p ps=0u w=5e+06u l=150000u
X89 vss.t30 vn2.t23 vn.t49 vss sky130_fd_pr__nfet_01v8 ad=0p pd=0u as=0p ps=0u w=5e+06u l=150000u
X90 vp.t130 vp3.t96 vdd.t177 vdd sky130_fd_pr__pfet_01v8 ad=0p pd=0u as=0p ps=0u w=5e+06u l=150000u
X91 vdd.t176 vp3.t97 vp.t129 vdd sky130_fd_pr__pfet_01v8 ad=0p pd=0u as=0p ps=0u w=5e+06u l=150000u
X92 vp.t128 vp3.t98 vdd.t175 vdd sky130_fd_pr__pfet_01v8 ad=0p pd=0u as=0p ps=0u w=5e+06u l=150000u
X93 vp.t127 vp3.t99 vdd.t174 vdd sky130_fd_pr__pfet_01v8 ad=0p pd=0u as=0p ps=0u w=5e+06u l=150000u
X94 vdd.t173 vp3.t100 vp.t126 vdd sky130_fd_pr__pfet_01v8 ad=0p pd=0u as=0p ps=0u w=5e+06u l=150000u
X95 vdd.t30 vn2.t24 vn.t28 vdd sky130_fd_pr__pfet_01v8 ad=0p pd=0u as=0p ps=0u w=5e+06u l=150000u
X96 vdd.t172 vp3.t101 vp.t125 vdd sky130_fd_pr__pfet_01v8 ad=0p pd=0u as=0p ps=0u w=5e+06u l=150000u
X97 vdd.t171 vp3.t102 vp.t124 vdd sky130_fd_pr__pfet_01v8 ad=0p pd=0u as=0p ps=0u w=5e+06u l=150000u
X98 vp.t226 vp3.t103 vss.t127 vss sky130_fd_pr__nfet_01v8 ad=0p pd=0u as=0p ps=0u w=5e+06u l=150000u
X99 vdd.t29 vn2.t25 vn.t27 vdd sky130_fd_pr__pfet_01v8 ad=0p pd=0u as=0p ps=0u w=5e+06u l=150000u
X100 nand_1/out vss sky130_fd_pr__cap_mim_m3_1 l=1.775e+07u w=1.775e+07u
X101 vp.t123 vp3.t104 vdd.t170 vdd sky130_fd_pr__pfet_01v8 ad=0p pd=0u as=0p ps=0u w=5e+06u l=150000u
X102 vp.t122 vp3.t105 vdd.t169 vdd sky130_fd_pr__pfet_01v8 ad=0p pd=0u as=0p ps=0u w=5e+06u l=150000u
X103 vn.t26 vn2.t26 vdd.t28 vdd sky130_fd_pr__pfet_01v8 ad=0p pd=0u as=0p ps=0u w=5e+06u l=150000u
X104 vdd.t27 vn2.t27 vn.t25 vdd sky130_fd_pr__pfet_01v8 ad=0p pd=0u as=0p ps=0u w=5e+06u l=150000u
X105 vp.t121 vp3.t106 vdd.t168 vdd sky130_fd_pr__pfet_01v8 ad=0p pd=0u as=0p ps=0u w=5e+06u l=150000u
X106 vp.t225 vp3.t107 vss.t128 vss sky130_fd_pr__nfet_01v8 ad=0p pd=0u as=0p ps=0u w=5e+06u l=150000u
X107 vp.t120 vp3.t108 vdd.t167 vdd sky130_fd_pr__pfet_01v8 ad=0p pd=0u as=0p ps=0u w=5e+06u l=150000u
X108 vp.t119 vp3.t109 vdd.t166 vdd sky130_fd_pr__pfet_01v8 ad=0p pd=0u as=0p ps=0u w=5e+06u l=150000u
X109 vdd.t165 vp3.t110 vp.t118 vdd sky130_fd_pr__pfet_01v8 ad=0p pd=0u as=0p ps=0u w=5e+06u l=150000u
X110 nand_0/out vss sky130_fd_pr__cap_mim_m3_1 l=1.775e+07u w=1.775e+07u
X111 vdd.t164 vp3.t111 vp.t117 vdd sky130_fd_pr__pfet_01v8 ad=0p pd=0u as=0p ps=0u w=5e+06u l=150000u
X112 vdd.t163 vp3.t112 vp.t116 vdd sky130_fd_pr__pfet_01v8 ad=0p pd=0u as=0p ps=0u w=5e+06u l=150000u
X113 vdd.t217 nand_0/out.t3 vn1.t1 vdd sky130_fd_pr__pfet_01v8 ad=0p pd=0u as=0p ps=0u w=5e+06u l=150000u
X114 vn.t24 vn2.t28 vdd.t26 vdd sky130_fd_pr__pfet_01v8 ad=0p pd=0u as=0p ps=0u w=5e+06u l=150000u
X115 vp.t224 vp3.t113 vss.t129 vss sky130_fd_pr__nfet_01v8 ad=0p pd=0u as=0p ps=0u w=5e+06u l=150000u
X116 vss.t130 vp3.t114 vp.t223 vss sky130_fd_pr__nfet_01v8 ad=0p pd=0u as=0p ps=0u w=5e+06u l=150000u
X117 vp3.t13 vp2.t27 vss.t66 vss sky130_fd_pr__nfet_01v8 ad=0p pd=0u as=0p ps=0u w=5e+06u l=150000u
X118 vp3.t14 vp2.t28 vdd.t231 vdd sky130_fd_pr__pfet_01v8 ad=0p pd=0u as=0p ps=0u w=5e+06u l=150000u
X119 vp.t222 vp3.t115 vss.t131 vss sky130_fd_pr__nfet_01v8 ad=0p pd=0u as=0p ps=0u w=5e+06u l=150000u
X120 vn.t23 vn2.t29 vdd.t25 vdd sky130_fd_pr__pfet_01v8 ad=0p pd=0u as=0p ps=0u w=5e+06u l=150000u
X121 vp.t115 vp3.t116 vdd.t162 vdd sky130_fd_pr__pfet_01v8 ad=0p pd=0u as=0p ps=0u w=5e+06u l=150000u
X122 vn.t48 vn2.t30 vss.t29 vss sky130_fd_pr__nfet_01v8 ad=0p pd=0u as=0p ps=0u w=5e+06u l=150000u
X123 vss.t67 vp2.t29 vp3.t15 vss sky130_fd_pr__nfet_01v8 ad=0p pd=0u as=0p ps=0u w=5e+06u l=150000u
X124 vp.t221 vp3.t117 vss.t132 vss sky130_fd_pr__nfet_01v8 ad=0p pd=0u as=0p ps=0u w=5e+06u l=150000u
X125 vdd.t161 vp3.t118 vp.t114 vdd sky130_fd_pr__pfet_01v8 ad=0p pd=0u as=0p ps=0u w=5e+06u l=150000u
X126 vss.t58 vp1.t6 vp2.t3 vss sky130_fd_pr__nfet_01v8 ad=0p pd=0u as=0p ps=0u w=5e+06u l=150000u
X127 vdd.t44 vn1.t6 vn2.t6 vdd sky130_fd_pr__pfet_01v8 ad=0p pd=0u as=0p ps=0u w=5e+06u l=150000u
X128 vdd.t160 vp3.t119 vp.t113 vdd sky130_fd_pr__pfet_01v8 ad=0p pd=0u as=0p ps=0u w=5e+06u l=150000u
X129 vdd.t211 vp1.t7 vp2.t4 vdd sky130_fd_pr__pfet_01v8 ad=0p pd=0u as=0p ps=0u w=5e+06u l=150000u
X130 vdd.t159 vp3.t120 vp.t112 vdd sky130_fd_pr__pfet_01v8 ad=0p pd=0u as=0p ps=0u w=5e+06u l=150000u
X131 vp3.t16 vp2.t30 vss.t68 vss sky130_fd_pr__nfet_01v8 ad=0p pd=0u as=0p ps=0u w=5e+06u l=150000u
X132 vdd.t158 vp3.t121 vp.t111 vdd sky130_fd_pr__pfet_01v8 ad=0p pd=0u as=0p ps=0u w=5e+06u l=150000u
X133 vss.t133 vp3.t122 vp.t220 vss sky130_fd_pr__nfet_01v8 ad=0p pd=0u as=0p ps=0u w=5e+06u l=150000u
X134 vn.t22 vn2.t31 vdd.t24 vdd sky130_fd_pr__pfet_01v8 ad=0p pd=0u as=0p ps=0u w=5e+06u l=150000u
X135 vp.t219 vp3.t123 vss.t134 vss sky130_fd_pr__nfet_01v8 ad=0p pd=0u as=0p ps=0u w=5e+06u l=150000u
X136 vp.t110 vp3.t124 vdd.t157 vdd sky130_fd_pr__pfet_01v8 ad=0p pd=0u as=0p ps=0u w=5e+06u l=150000u
X137 vn.t47 vn2.t32 vss.t28 vss sky130_fd_pr__nfet_01v8 ad=0p pd=0u as=0p ps=0u w=5e+06u l=150000u
X138 vp.t109 vp3.t125 vdd.t156 vdd sky130_fd_pr__pfet_01v8 ad=0p pd=0u as=0p ps=0u w=5e+06u l=150000u
X139 vp.t108 vp3.t126 vdd.t155 vdd sky130_fd_pr__pfet_01v8 ad=0p pd=0u as=0p ps=0u w=5e+06u l=150000u
X140 vp.t218 vp3.t127 vss.t135 vss sky130_fd_pr__nfet_01v8 ad=0p pd=0u as=0p ps=0u w=5e+06u l=150000u
X141 vp3.t17 vp2.t31 vdd.t232 vdd sky130_fd_pr__pfet_01v8 ad=0p pd=0u as=0p ps=0u w=5e+06u l=150000u
X142 vss.t136 vp3.t128 vp.t217 vss sky130_fd_pr__nfet_01v8 ad=0p pd=0u as=0p ps=0u w=5e+06u l=150000u
X143 vdd.t154 vp3.t129 vp.t107 vdd sky130_fd_pr__pfet_01v8 ad=0p pd=0u as=0p ps=0u w=5e+06u l=150000u
X144 vss.t69 vp2.t32 vp3.t18 vss sky130_fd_pr__nfet_01v8 ad=0p pd=0u as=0p ps=0u w=5e+06u l=150000u
X145 vdd.t233 vp2.t33 vp3.t19 vdd sky130_fd_pr__pfet_01v8 ad=0p pd=0u as=0p ps=0u w=5e+06u l=150000u
X146 vp.t106 vp3.t130 vdd.t153 vdd sky130_fd_pr__pfet_01v8 ad=0p pd=0u as=0p ps=0u w=5e+06u l=150000u
X147 vn2.t5 vn1.t7 vdd.t43 vdd sky130_fd_pr__pfet_01v8 ad=0p pd=0u as=0p ps=0u w=5e+06u l=150000u
X148 nand_0/out vss sky130_fd_pr__cap_mim_m3_1 l=0u w=0u
X149 vp.t216 vp3.t131 vss.t137 vss sky130_fd_pr__nfet_01v8 ad=0p pd=0u as=0p ps=0u w=5e+06u l=150000u
X150 vdd.t212 vp1.t8 vp2.t5 vdd sky130_fd_pr__pfet_01v8 ad=0p pd=0u as=0p ps=0u w=5e+06u l=150000u
X151 nand_0/out vss sky130_fd_pr__cap_mim_m3_1 l=0u w=0u
X152 nand_1/out vss sky130_fd_pr__cap_mim_m3_1 l=0u w=0u
X153 vdd.t152 vp3.t132 vp.t105 vdd sky130_fd_pr__pfet_01v8 ad=0p pd=0u as=0p ps=0u w=5e+06u l=150000u
X154 vdd.t151 vp3.t133 vp.t104 vdd sky130_fd_pr__pfet_01v8 ad=0p pd=0u as=0p ps=0u w=5e+06u l=150000u
X155 vp3.t20 vp2.t34 vss.t70 vss sky130_fd_pr__nfet_01v8 ad=0p pd=0u as=0p ps=0u w=5e+06u l=150000u
X156 vdd.t23 vn2.t33 vn.t21 vdd sky130_fd_pr__pfet_01v8 ad=0p pd=0u as=0p ps=0u w=5e+06u l=150000u
X157 vdd.t150 vp3.t134 vp.t103 vdd sky130_fd_pr__pfet_01v8 ad=0p pd=0u as=0p ps=0u w=5e+06u l=150000u
X158 vp.t215 vp3.t135 vss.t138 vss sky130_fd_pr__nfet_01v8 ad=0p pd=0u as=0p ps=0u w=5e+06u l=150000u
X159 vp3.t21 vp2.t35 vdd.t234 vdd sky130_fd_pr__pfet_01v8 ad=0p pd=0u as=0p ps=0u w=5e+06u l=150000u
X160 vdd.t22 vn2.t34 vn.t20 vdd sky130_fd_pr__pfet_01v8 ad=0p pd=0u as=0p ps=0u w=5e+06u l=150000u
X161 nand_0/out vss sky130_fd_pr__cap_mim_m3_1 l=1.775e+07u w=1.775e+07u
X162 vp.t102 vp3.t136 vdd.t149 vdd sky130_fd_pr__pfet_01v8 ad=0p pd=0u as=0p ps=0u w=5e+06u l=150000u
X163 vp.t101 vp3.t137 vdd.t148 vdd sky130_fd_pr__pfet_01v8 ad=0p pd=0u as=0p ps=0u w=5e+06u l=150000u
X164 vss.t139 vp3.t138 vp.t214 vss sky130_fd_pr__nfet_01v8 ad=0p pd=0u as=0p ps=0u w=5e+06u l=150000u
X165 vp.t100 vp3.t139 vdd.t147 vdd sky130_fd_pr__pfet_01v8 ad=0p pd=0u as=0p ps=0u w=5e+06u l=150000u
X166 vp.t213 vp3.t140 vss.t140 vss sky130_fd_pr__nfet_01v8 ad=0p pd=0u as=0p ps=0u w=5e+06u l=150000u
X167 vp.t99 vp3.t141 vdd.t146 vdd sky130_fd_pr__pfet_01v8 ad=0p pd=0u as=0p ps=0u w=5e+06u l=150000u
X168 a_n80_n460# nand_0/B vss.t55 vss sky130_fd_pr__nfet_01v8 ad=0p pd=0u as=0p ps=0u w=2e+06u l=150000u
X169 vdd.t235 vp2.t36 vp3.t22 vdd sky130_fd_pr__pfet_01v8 ad=0p pd=0u as=0p ps=0u w=5e+06u l=150000u
X170 vdd.t145 vp3.t142 vp.t98 vdd sky130_fd_pr__pfet_01v8 ad=0p pd=0u as=0p ps=0u w=5e+06u l=150000u
X171 vdd.t144 vp3.t143 vp.t97 vdd sky130_fd_pr__pfet_01v8 ad=0p pd=0u as=0p ps=0u w=5e+06u l=150000u
X172 vdd.t143 vp3.t144 vp.t96 vdd sky130_fd_pr__pfet_01v8 ad=0p pd=0u as=0p ps=0u w=5e+06u l=150000u
X173 vdd.t142 vp3.t145 vp.t95 vdd sky130_fd_pr__pfet_01v8 ad=0p pd=0u as=0p ps=0u w=5e+06u l=150000u
X174 vp.t94 vp3.t146 vdd.t141 vdd sky130_fd_pr__pfet_01v8 ad=0p pd=0u as=0p ps=0u w=5e+06u l=150000u
X175 vp.t212 vp3.t147 vss.t141 vss sky130_fd_pr__nfet_01v8 ad=0p pd=0u as=0p ps=0u w=5e+06u l=150000u
X176 vp.t211 vp3.t148 vss.t142 vss sky130_fd_pr__nfet_01v8 ad=0p pd=0u as=0p ps=0u w=5e+06u l=150000u
X177 vdd.t140 vp3.t149 vp.t93 vdd sky130_fd_pr__pfet_01v8 ad=0p pd=0u as=0p ps=0u w=5e+06u l=150000u
X178 vp.t210 vp3.t150 vss.t143 vss sky130_fd_pr__nfet_01v8 ad=0p pd=0u as=0p ps=0u w=5e+06u l=150000u
X179 vn.t46 vn2.t35 vss.t27 vss sky130_fd_pr__nfet_01v8 ad=0p pd=0u as=0p ps=0u w=5e+06u l=150000u
X180 nand_1/out vss sky130_fd_pr__cap_mim_m3_1 l=1.775e+07u w=1.775e+07u
X181 nand_1/out vss sky130_fd_pr__cap_mim_m3_1 l=1.775e+07u w=1.775e+07u
X182 vss.t26 vn2.t36 vn.t45 vss sky130_fd_pr__nfet_01v8 ad=0p pd=0u as=0p ps=0u w=5e+06u l=150000u
X183 nand_1/out vss sky130_fd_pr__cap_mim_m3_1 l=1.775e+07u w=1.775e+07u
X184 vp.t92 vp3.t151 vdd.t139 vdd sky130_fd_pr__pfet_01v8 ad=0p pd=0u as=0p ps=0u w=5e+06u l=150000u
X185 vp.t91 vp3.t152 vdd.t138 vdd sky130_fd_pr__pfet_01v8 ad=0p pd=0u as=0p ps=0u w=5e+06u l=150000u
X186 vp.t209 vp3.t153 vss.t144 vss sky130_fd_pr__nfet_01v8 ad=0p pd=0u as=0p ps=0u w=5e+06u l=150000u
X187 vn2.t9 vn1.t8 vss.t36 vss sky130_fd_pr__nfet_01v8 ad=0p pd=0u as=0p ps=0u w=5e+06u l=150000u
X188 vp.t90 vp3.t154 vdd.t137 vdd sky130_fd_pr__pfet_01v8 ad=0p pd=0u as=0p ps=0u w=5e+06u l=150000u
X189 vp.t89 vp3.t155 vdd.t136 vdd sky130_fd_pr__pfet_01v8 ad=0p pd=0u as=0p ps=0u w=5e+06u l=150000u
X190 vdd.t135 vp3.t156 vp.t88 vdd sky130_fd_pr__pfet_01v8 ad=0p pd=0u as=0p ps=0u w=5e+06u l=150000u
X191 vss.t71 vp2.t37 vp3.t23 vss sky130_fd_pr__nfet_01v8 ad=0p pd=0u as=0p ps=0u w=5e+06u l=150000u
X192 vdd.t134 vp3.t157 vp.t87 vdd sky130_fd_pr__pfet_01v8 ad=0p pd=0u as=0p ps=0u w=5e+06u l=150000u
X193 vdd.t133 vp3.t158 vp.t86 vdd sky130_fd_pr__pfet_01v8 ad=0p pd=0u as=0p ps=0u w=5e+06u l=150000u
X194 nand_1/out vss sky130_fd_pr__cap_mim_m3_1 l=1.775e+07u w=1.775e+07u
X195 vdd.t42 vn1.t9 vn2.t4 vdd sky130_fd_pr__pfet_01v8 ad=0p pd=0u as=0p ps=0u w=5e+06u l=150000u
X196 vdd.t132 vp3.t159 vp.t85 vdd sky130_fd_pr__pfet_01v8 ad=0p pd=0u as=0p ps=0u w=5e+06u l=150000u
X197 vp.t84 vp3.t160 vdd.t131 vdd sky130_fd_pr__pfet_01v8 ad=0p pd=0u as=0p ps=0u w=5e+06u l=150000u
X198 vp.t83 vp3.t161 vdd.t130 vdd sky130_fd_pr__pfet_01v8 ad=0p pd=0u as=0p ps=0u w=5e+06u l=150000u
X199 vp.t208 vp3.t162 vss.t145 vss sky130_fd_pr__nfet_01v8 ad=0p pd=0u as=0p ps=0u w=5e+06u l=150000u
X200 vn.t19 vn2.t37 vdd.t21 vdd sky130_fd_pr__pfet_01v8 ad=0p pd=0u as=0p ps=0u w=5e+06u l=150000u
X201 nand_0/out vss sky130_fd_pr__cap_mim_m3_1 l=0u w=0u
X202 vp.t82 vp3.t163 vdd.t129 vdd sky130_fd_pr__pfet_01v8 ad=0p pd=0u as=0p ps=0u w=5e+06u l=150000u
X203 vp.t81 vp3.t164 vdd.t128 vdd sky130_fd_pr__pfet_01v8 ad=0p pd=0u as=0p ps=0u w=5e+06u l=150000u
X204 vss.t146 vp3.t165 vp.t207 vss sky130_fd_pr__nfet_01v8 ad=0p pd=0u as=0p ps=0u w=5e+06u l=150000u
X205 vn.t44 vn2.t38 vss.t25 vss sky130_fd_pr__nfet_01v8 ad=0p pd=0u as=0p ps=0u w=5e+06u l=150000u
X206 vp3.t24 vp2.t38 vdd.t236 vdd sky130_fd_pr__pfet_01v8 ad=0p pd=0u as=0p ps=0u w=5e+06u l=150000u
X207 nand_1/out.t0 vn2.t39 vdd.t20 vdd sky130_fd_pr__pfet_01v8 ad=0p pd=0u as=0p ps=0u w=2e+06u l=150000u
X208 vp.t80 vp3.t166 vdd.t127 vdd sky130_fd_pr__pfet_01v8 ad=0p pd=0u as=0p ps=0u w=5e+06u l=150000u
X209 vdd.t126 vp3.t167 vp.t79 vdd sky130_fd_pr__pfet_01v8 ad=0p pd=0u as=0p ps=0u w=5e+06u l=150000u
X210 nand_0/out vss sky130_fd_pr__cap_mim_m3_1 l=1.775e+07u w=1.775e+07u
X211 vss.t72 vp2.t39 vp3.t25 vss sky130_fd_pr__nfet_01v8 ad=0p pd=0u as=0p ps=0u w=5e+06u l=150000u
X212 nand_1/out vss sky130_fd_pr__cap_mim_m3_1 l=1.775e+07u w=1.775e+07u
X213 vdd.t237 vp2.t40 vp3.t26 vdd sky130_fd_pr__pfet_01v8 ad=0p pd=0u as=0p ps=0u w=5e+06u l=150000u
X214 vdd.t218 nand_1/out.t3 vp1.t1 vdd sky130_fd_pr__pfet_01v8 ad=0p pd=0u as=0p ps=0u w=5e+06u l=150000u
X215 vn.t18 vn2.t40 vdd.t19 vdd sky130_fd_pr__pfet_01v8 ad=0p pd=0u as=0p ps=0u w=5e+06u l=150000u
X216 vp.t206 vp3.t168 vss.t147 vss sky130_fd_pr__nfet_01v8 ad=0p pd=0u as=0p ps=0u w=5e+06u l=150000u
X217 vp3.t27 vp2.t41 vss.t73 vss sky130_fd_pr__nfet_01v8 ad=0p pd=0u as=0p ps=0u w=5e+06u l=150000u
X218 nand_0/out vss sky130_fd_pr__cap_mim_m3_1 l=0u w=0u
X219 vss.t148 vp3.t169 vp.t205 vss sky130_fd_pr__nfet_01v8 ad=0p pd=0u as=0p ps=0u w=5e+06u l=150000u
X220 vp3.t28 vp2.t42 vdd.t238 vdd sky130_fd_pr__pfet_01v8 ad=0p pd=0u as=0p ps=0u w=5e+06u l=150000u
X221 vp.t204 vp3.t170 vss.t149 vss sky130_fd_pr__nfet_01v8 ad=0p pd=0u as=0p ps=0u w=5e+06u l=150000u
X222 nand_0/out vss sky130_fd_pr__cap_mim_m3_1 l=1.775e+07u w=1.775e+07u
X223 vp.t78 vp3.t171 vdd.t125 vdd sky130_fd_pr__pfet_01v8 ad=0p pd=0u as=0p ps=0u w=5e+06u l=150000u
X224 vp2.t6 vp1.t9 vdd.t213 vdd sky130_fd_pr__pfet_01v8 ad=0p pd=0u as=0p ps=0u w=5e+06u l=150000u
X225 vdd.t18 vn2.t41 vn.t17 vdd sky130_fd_pr__pfet_01v8 ad=0p pd=0u as=0p ps=0u w=5e+06u l=150000u
X226 vp.t77 vp3.t172 vdd.t124 vdd sky130_fd_pr__pfet_01v8 ad=0p pd=0u as=0p ps=0u w=5e+06u l=150000u
X227 vss.t150 vp3.t173 vp.t203 vss sky130_fd_pr__nfet_01v8 ad=0p pd=0u as=0p ps=0u w=5e+06u l=150000u
X228 vdd.t239 vp2.t43 vp3.t29 vdd sky130_fd_pr__pfet_01v8 ad=0p pd=0u as=0p ps=0u w=5e+06u l=150000u
X229 vss.t151 vp3.t174 vp.t202 vss sky130_fd_pr__nfet_01v8 ad=0p pd=0u as=0p ps=0u w=5e+06u l=150000u
X230 nand_1/out vss sky130_fd_pr__cap_mim_m3_1 l=1.775e+07u w=1.775e+07u
X231 vdd.t123 vp3.t175 vp.t76 vdd sky130_fd_pr__pfet_01v8 ad=0p pd=0u as=0p ps=0u w=5e+06u l=150000u
X232 vdd.t122 vp3.t176 vp.t75 vdd sky130_fd_pr__pfet_01v8 ad=0p pd=0u as=0p ps=0u w=5e+06u l=150000u
X233 nand_0/out vss sky130_fd_pr__cap_mim_m3_1 l=0u w=0u
X234 vdd.t121 vp3.t177 vp.t74 vdd sky130_fd_pr__pfet_01v8 ad=0p pd=0u as=0p ps=0u w=5e+06u l=150000u
X235 vp.t201 vp3.t178 vss.t152 vss sky130_fd_pr__nfet_01v8 ad=0p pd=0u as=0p ps=0u w=5e+06u l=150000u
X236 vdd.t240 vp2.t44 vp3.t30 vdd sky130_fd_pr__pfet_01v8 ad=0p pd=0u as=0p ps=0u w=5e+06u l=150000u
X237 vp3.t31 vp2.t45 vdd.t241 vdd sky130_fd_pr__pfet_01v8 ad=0p pd=0u as=0p ps=0u w=5e+06u l=150000u
X238 vp.t200 vp3.t179 vss.t153 vss sky130_fd_pr__nfet_01v8 ad=0p pd=0u as=0p ps=0u w=5e+06u l=150000u
X239 vp.t199 vp3.t180 vss.t154 vss sky130_fd_pr__nfet_01v8 ad=0p pd=0u as=0p ps=0u w=5e+06u l=150000u
X240 vdd.t17 vn2.t42 vn.t16 vdd sky130_fd_pr__pfet_01v8 ad=0p pd=0u as=0p ps=0u w=5e+06u l=150000u
X241 vss.t24 vn2.t43 vn.t43 vss sky130_fd_pr__nfet_01v8 ad=0p pd=0u as=0p ps=0u w=5e+06u l=150000u
X242 vdd.t120 vp3.t181 vp.t73 vdd sky130_fd_pr__pfet_01v8 ad=0p pd=0u as=0p ps=0u w=5e+06u l=150000u
X243 vp3.t32 vp2.t46 vdd.t242 vdd sky130_fd_pr__pfet_01v8 ad=0p pd=0u as=0p ps=0u w=5e+06u l=150000u
X244 vss.t155 vp3.t182 vp.t198 vss sky130_fd_pr__nfet_01v8 ad=0p pd=0u as=0p ps=0u w=5e+06u l=150000u
X245 vp.t197 vp3.t183 vss.t156 vss sky130_fd_pr__nfet_01v8 ad=0p pd=0u as=0p ps=0u w=5e+06u l=150000u
X246 nand_1/out vss sky130_fd_pr__cap_mim_m3_1 l=0u w=0u
X247 vdd.t119 vp3.t184 vp.t72 vdd sky130_fd_pr__pfet_01v8 ad=0p pd=0u as=0p ps=0u w=5e+06u l=150000u
X248 vss.t157 vp3.t185 vp.t196 vss sky130_fd_pr__nfet_01v8 ad=0p pd=0u as=0p ps=0u w=5e+06u l=150000u
X249 vn.t42 vn2.t44 vss.t23 vss sky130_fd_pr__nfet_01v8 ad=0p pd=0u as=0p ps=0u w=5e+06u l=150000u
X250 nand_0/out vss sky130_fd_pr__cap_mim_m3_1 l=0u w=0u
X251 vp.t71 vp3.t186 vdd.t118 vdd sky130_fd_pr__pfet_01v8 ad=0p pd=0u as=0p ps=0u w=5e+06u l=150000u
X252 vp.t70 vp3.t187 vdd.t117 vdd sky130_fd_pr__pfet_01v8 ad=0p pd=0u as=0p ps=0u w=5e+06u l=150000u
X253 vp.t69 vp3.t188 vdd.t116 vdd sky130_fd_pr__pfet_01v8 ad=0p pd=0u as=0p ps=0u w=5e+06u l=150000u
X254 vdd.t243 vp2.t47 vp3.t33 vdd sky130_fd_pr__pfet_01v8 ad=0p pd=0u as=0p ps=0u w=5e+06u l=150000u
X255 nand_0/out vss sky130_fd_pr__cap_mim_m3_1 l=1.775e+07u w=1.775e+07u
X256 vdd.t244 vp2.t48 vp3.t34 vdd sky130_fd_pr__pfet_01v8 ad=0p pd=0u as=0p ps=0u w=5e+06u l=150000u
X257 vdd.t115 vp3.t189 vp.t68 vdd sky130_fd_pr__pfet_01v8 ad=0p pd=0u as=0p ps=0u w=5e+06u l=150000u
X258 vdd.t114 vp3.t190 vp.t67 vdd sky130_fd_pr__pfet_01v8 ad=0p pd=0u as=0p ps=0u w=5e+06u l=150000u
X259 vdd.t113 vp3.t191 vp.t66 vdd sky130_fd_pr__pfet_01v8 ad=0p pd=0u as=0p ps=0u w=5e+06u l=150000u
X260 vdd.t112 vp3.t192 vp.t65 vdd sky130_fd_pr__pfet_01v8 ad=0p pd=0u as=0p ps=0u w=5e+06u l=150000u
X261 vp3.t35 vp2.t49 vdd.t245 vdd sky130_fd_pr__pfet_01v8 ad=0p pd=0u as=0p ps=0u w=5e+06u l=150000u
X262 vdd.t111 vp3.t193 vp.t64 vdd sky130_fd_pr__pfet_01v8 ad=0p pd=0u as=0p ps=0u w=5e+06u l=150000u
X263 vn1.t2 nand_0/out.t4 vss.t61 vss sky130_fd_pr__nfet_01v8 ad=0p pd=0u as=0p ps=0u w=5e+06u l=150000u
X264 vp2.t7 vp1.t10 vss.t59 vss sky130_fd_pr__nfet_01v8 ad=0p pd=0u as=0p ps=0u w=5e+06u l=150000u
X265 vp.t195 vp3.t194 vss.t158 vss sky130_fd_pr__nfet_01v8 ad=0p pd=0u as=0p ps=0u w=5e+06u l=150000u
X266 vp.t63 vp3.t195 vdd.t110 vdd sky130_fd_pr__pfet_01v8 ad=0p pd=0u as=0p ps=0u w=5e+06u l=150000u
X267 vn.t15 vn2.t45 vdd.t16 vdd sky130_fd_pr__pfet_01v8 ad=0p pd=0u as=0p ps=0u w=5e+06u l=150000u
X268 vdd.t15 vn2.t46 vn.t14 vdd sky130_fd_pr__pfet_01v8 ad=0p pd=0u as=0p ps=0u w=5e+06u l=150000u
X269 vss.t159 vp3.t196 vp.t194 vss sky130_fd_pr__nfet_01v8 ad=0p pd=0u as=0p ps=0u w=5e+06u l=150000u
X270 vn.t41 vn2.t47 vss.t22 vss sky130_fd_pr__nfet_01v8 ad=0p pd=0u as=0p ps=0u w=5e+06u l=150000u
X271 vp.t62 vp3.t197 vdd.t109 vdd sky130_fd_pr__pfet_01v8 ad=0p pd=0u as=0p ps=0u w=5e+06u l=150000u
X272 nand_0/out vss sky130_fd_pr__cap_mim_m3_1 l=1.775e+07u w=1.775e+07u
X273 vp.t193 vp3.t198 vss.t160 vss sky130_fd_pr__nfet_01v8 ad=0p pd=0u as=0p ps=0u w=5e+06u l=150000u
X274 vp.t61 vp3.t199 vdd.t108 vdd sky130_fd_pr__pfet_01v8 ad=0p pd=0u as=0p ps=0u w=5e+06u l=150000u
X275 vn.t13 vn2.t48 vdd.t14 vdd sky130_fd_pr__pfet_01v8 ad=0p pd=0u as=0p ps=0u w=5e+06u l=150000u
X276 nand_0/out vss sky130_fd_pr__cap_mim_m3_1 l=1.775e+07u w=1.775e+07u
X277 vp.t60 vp3.t200 vdd.t107 vdd sky130_fd_pr__pfet_01v8 ad=0p pd=0u as=0p ps=0u w=5e+06u l=150000u
X278 vss.t35 vn1.t10 vn2.t8 vss sky130_fd_pr__nfet_01v8 ad=0p pd=0u as=0p ps=0u w=5e+06u l=150000u
X279 vp.t59 vp3.t201 vdd.t106 vdd sky130_fd_pr__pfet_01v8 ad=0p pd=0u as=0p ps=0u w=5e+06u l=150000u
X280 vdd.t105 vp3.t202 vp.t58 vdd sky130_fd_pr__pfet_01v8 ad=0p pd=0u as=0p ps=0u w=5e+06u l=150000u
X281 vdd.t246 vp2.t50 vp3.t36 vdd sky130_fd_pr__pfet_01v8 ad=0p pd=0u as=0p ps=0u w=5e+06u l=150000u
X282 vdd.t104 vp3.t203 vp.t57 vdd sky130_fd_pr__pfet_01v8 ad=0p pd=0u as=0p ps=0u w=5e+06u l=150000u
X283 vdd.t207 vin.t0 nand_1/out.t1 vdd sky130_fd_pr__pfet_01v8 ad=0p pd=0u as=0p ps=0u w=2e+06u l=150000u
X284 vdd.t103 vp3.t204 vp.t56 vdd sky130_fd_pr__pfet_01v8 ad=0p pd=0u as=0p ps=0u w=5e+06u l=150000u
X285 vss.t81 vp3.t205 vp.t192 vss sky130_fd_pr__nfet_01v8 ad=0p pd=0u as=0p ps=0u w=5e+06u l=150000u
X286 vdd.t102 vp3.t206 vp.t55 vdd sky130_fd_pr__pfet_01v8 ad=0p pd=0u as=0p ps=0u w=5e+06u l=150000u
X287 vp.t54 vp3.t207 vdd.t101 vdd sky130_fd_pr__pfet_01v8 ad=0p pd=0u as=0p ps=0u w=5e+06u l=150000u
X288 vn.t12 vn2.t49 vdd.t13 vdd sky130_fd_pr__pfet_01v8 ad=0p pd=0u as=0p ps=0u w=5e+06u l=150000u
X289 vdd.t12 vn2.t50 vn.t11 vdd sky130_fd_pr__pfet_01v8 ad=0p pd=0u as=0p ps=0u w=5e+06u l=150000u
X290 vp.t53 vp3.t208 vdd.t100 vdd sky130_fd_pr__pfet_01v8 ad=0p pd=0u as=0p ps=0u w=5e+06u l=150000u
X291 vp.t52 vp3.t209 vdd.t99 vdd sky130_fd_pr__pfet_01v8 ad=0p pd=0u as=0p ps=0u w=5e+06u l=150000u
X292 vss.t82 vp3.t210 vp.t191 vss sky130_fd_pr__nfet_01v8 ad=0p pd=0u as=0p ps=0u w=5e+06u l=150000u
X293 vp2.t8 vp1.t11 vdd.t214 vdd sky130_fd_pr__pfet_01v8 ad=0p pd=0u as=0p ps=0u w=5e+06u l=150000u
X294 nand_1/out vss sky130_fd_pr__cap_mim_m3_1 l=1.775e+07u w=1.775e+07u
X295 vp.t51 vp3.t211 vdd.t98 vdd sky130_fd_pr__pfet_01v8 ad=0p pd=0u as=0p ps=0u w=5e+06u l=150000u
X296 vss.t83 vp3.t212 vp.t190 vss sky130_fd_pr__nfet_01v8 ad=0p pd=0u as=0p ps=0u w=5e+06u l=150000u
X297 nand_1/out vss sky130_fd_pr__cap_mim_m3_1 l=1.775e+07u w=1.775e+07u
X298 vp.t50 vp3.t213 vdd.t97 vdd sky130_fd_pr__pfet_01v8 ad=0p pd=0u as=0p ps=0u w=5e+06u l=150000u
X299 vdd.t96 vp3.t214 vp.t49 vdd sky130_fd_pr__pfet_01v8 ad=0p pd=0u as=0p ps=0u w=5e+06u l=150000u
X300 vdd.t95 vp3.t215 vp.t48 vdd sky130_fd_pr__pfet_01v8 ad=0p pd=0u as=0p ps=0u w=5e+06u l=150000u
X301 vdd.t94 vp3.t216 vp.t47 vdd sky130_fd_pr__pfet_01v8 ad=0p pd=0u as=0p ps=0u w=5e+06u l=150000u
X302 vdd.t93 vp3.t217 vp.t46 vdd sky130_fd_pr__pfet_01v8 ad=0p pd=0u as=0p ps=0u w=5e+06u l=150000u
X303 vdd.t247 vp2.t51 vp3.t37 vdd sky130_fd_pr__pfet_01v8 ad=0p pd=0u as=0p ps=0u w=5e+06u l=150000u
X304 nand_1/out vss sky130_fd_pr__cap_mim_m3_1 l=1.775e+07u w=1.775e+07u
X305 vp.t189 vp3.t218 vss.t84 vss sky130_fd_pr__nfet_01v8 ad=0p pd=0u as=0p ps=0u w=5e+06u l=150000u
X306 vdd.t11 vn2.t51 vn.t10 vdd sky130_fd_pr__pfet_01v8 ad=0p pd=0u as=0p ps=0u w=5e+06u l=150000u
X307 vss.t85 vp3.t219 vp.t188 vss sky130_fd_pr__nfet_01v8 ad=0p pd=0u as=0p ps=0u w=5e+06u l=150000u
X308 vp.t45 vp3.t220 vdd.t92 vdd sky130_fd_pr__pfet_01v8 ad=0p pd=0u as=0p ps=0u w=5e+06u l=150000u
X309 nand_0/out vss sky130_fd_pr__cap_mim_m3_1 l=1.775e+07u w=1.775e+07u
X310 vp.t187 vp3.t221 vss.t86 vss sky130_fd_pr__nfet_01v8 ad=0p pd=0u as=0p ps=0u w=5e+06u l=150000u