* NGSPICE file created from /home/eda/magic/class_d_audio_amplifier/comparator/comparator_revised.ext - technology: sky130A

.subckt comparator_revised_post vdd vp vn vbias vss vout
X0 w_20679_4119.t42 vbias.t48 vdd.t95 vdd sky130_fd_pr__pfet_01v8_lvt ad=0p pd=0u as=0p ps=0u w=2e+06u l=1e+06u
X1 w_20679_4119.t41 vbias.t49 vdd.t94 vdd sky130_fd_pr__pfet_01v8_lvt ad=0p pd=0u as=0p ps=0u w=2e+06u l=1e+06u
X2 w_20679_4119.t18 vp.t0 a_21819_2107.t15 w_20679_4119# sky130_fd_pr__pfet_01v8_lvt ad=0p pd=0u as=0p ps=0u w=4e+06u l=1e+06u
X3 vout.t63 a_21819_2107.t32 vss.t78 vss sky130_fd_pr__nfet_01v8_lvt ad=0p pd=0u as=0p ps=0u w=1e+06u l=1e+06u
X4 vout.t111 vbias.t50 vdd.t93 vdd sky130_fd_pr__pfet_01v8_lvt ad=0p pd=0u as=0p ps=0u w=2e+06u l=1e+06u
X5 vout.t62 a_21819_2107.t33 vss.t77 vss sky130_fd_pr__nfet_01v8_lvt ad=0p pd=0u as=0p ps=0u w=1e+06u l=1e+06u
X6 vdd.t92 vbias.t46 vbias.t47 vdd sky130_fd_pr__pfet_01v8_lvt ad=0p pd=0u as=0p ps=0u w=2e+06u l=1e+06u
X7 vdd.t91 vbias.t51 vout.t110 vdd sky130_fd_pr__pfet_01v8_lvt ad=0p pd=0u as=0p ps=0u w=2e+06u l=1e+06u
X8 vout.t109 vbias.t52 vdd.t90 vdd sky130_fd_pr__pfet_01v8_lvt ad=0p pd=0u as=0p ps=0u w=2e+06u l=1e+06u
X9 a_21819_2107.t16 a_20875_2019.t48 vss.t80 vss sky130_fd_pr__nfet_01v8_lvt ad=0p pd=0u as=0p ps=0u w=1e+06u l=1e+06u
X10 w_20679_4119.t55 vn.t0 a_20875_2019.t47 w_20679_4119# sky130_fd_pr__pfet_01v8_lvt ad=0p pd=0u as=0p ps=0u w=4e+06u l=1e+06u
X11 a_21819_2107.t17 a_20875_2019.t49 vss.t81 vss sky130_fd_pr__nfet_01v8_lvt ad=0p pd=0u as=0p ps=0u w=1e+06u l=1e+06u
X12 vss.t76 a_21819_2107.t34 vout.t61 vss sky130_fd_pr__nfet_01v8_lvt ad=0p pd=0u as=0p ps=0u w=1e+06u l=1e+06u
X13 w_20679_4119.t16 vp.t1 a_21819_2107.t14 w_20679_4119# sky130_fd_pr__pfet_01v8_lvt ad=0p pd=0u as=0p ps=0u w=4e+06u l=1e+06u
X14 a_21819_2107.t13 vp.t2 w_20679_4119.t17 w_20679_4119# sky130_fd_pr__pfet_01v8_lvt ad=0p pd=0u as=0p ps=0u w=4e+06u l=1e+06u
X15 vdd.t89 vbias.t53 vout.t108 vdd sky130_fd_pr__pfet_01v8_lvt ad=0p pd=0u as=0p ps=0u w=2e+06u l=1e+06u
X16 vbias.t45 vbias.t44 vdd.t88 vdd sky130_fd_pr__pfet_01v8_lvt ad=0p pd=0u as=0p ps=0u w=2e+06u l=1e+06u
X17 vout.t60 a_21819_2107.t35 vss.t75 vss sky130_fd_pr__nfet_01v8_lvt ad=0p pd=0u as=0p ps=0u w=1e+06u l=1e+06u
X18 vdd.t87 vbias.t42 vbias.t43 vdd sky130_fd_pr__pfet_01v8_lvt ad=0p pd=0u as=0p ps=0u w=2e+06u l=1e+06u
X19 vbias.t41 vbias.t40 vdd.t86 vdd sky130_fd_pr__pfet_01v8_lvt ad=0p pd=0u as=0p ps=0u w=2e+06u l=1e+06u
X20 vout.t107 vbias.t54 vdd.t85 vdd sky130_fd_pr__pfet_01v8_lvt ad=0p pd=0u as=0p ps=0u w=2e+06u l=1e+06u
X21 vbias.t39 vbias.t38 vdd.t84 vdd sky130_fd_pr__pfet_01v8_lvt ad=0p pd=0u as=0p ps=0u w=2e+06u l=1e+06u
X22 vdd.t83 vbias.t55 vout.t106 vdd sky130_fd_pr__pfet_01v8_lvt ad=0p pd=0u as=0p ps=0u w=2e+06u l=1e+06u
X23 vss.t74 a_21819_2107.t36 vout.t59 vss sky130_fd_pr__nfet_01v8_lvt ad=0p pd=0u as=0p ps=0u w=1e+06u l=1e+06u
X24 vout.t105 vbias.t56 vdd.t82 vdd sky130_fd_pr__pfet_01v8_lvt ad=0p pd=0u as=0p ps=0u w=2e+06u l=1e+06u
X25 vdd.t81 vbias.t57 vout.t104 vdd sky130_fd_pr__pfet_01v8_lvt ad=0p pd=0u as=0p ps=0u w=2e+06u l=1e+06u
X26 vout.t58 a_21819_2107.t37 vss.t73 vss sky130_fd_pr__nfet_01v8_lvt ad=0p pd=0u as=0p ps=0u w=1e+06u l=1e+06u
X27 vss.t72 a_21819_2107.t38 vout.t57 vss sky130_fd_pr__nfet_01v8_lvt ad=0p pd=0u as=0p ps=0u w=1e+06u l=1e+06u
X28 vout.t103 vbias.t58 vdd.t80 vdd sky130_fd_pr__pfet_01v8_lvt ad=0p pd=0u as=0p ps=0u w=2e+06u l=1e+06u
X29 w_20679_4119.t53 vn.t1 a_20875_2019.t45 w_20679_4119# sky130_fd_pr__pfet_01v8_lvt ad=0p pd=0u as=0p ps=0u w=4e+06u l=1e+06u
X30 vout.t56 a_21819_2107.t39 vss.t71 vss sky130_fd_pr__nfet_01v8_lvt ad=0p pd=0u as=0p ps=0u w=1e+06u l=1e+06u
X31 vout.t55 a_21819_2107.t40 vss.t70 vss sky130_fd_pr__nfet_01v8_lvt ad=0p pd=0u as=0p ps=0u w=1e+06u l=1e+06u
X32 a_21819_2107.t12 vp.t3 w_20679_4119.t4 w_20679_4119# sky130_fd_pr__pfet_01v8_lvt ad=0p pd=0u as=0p ps=0u w=4e+06u l=1e+06u
X33 vss.t69 a_21819_2107.t41 vout.t54 vss sky130_fd_pr__nfet_01v8_lvt ad=0p pd=0u as=0p ps=0u w=1e+06u l=1e+06u
X34 w_20679_4119.t3 vp.t4 a_21819_2107.t11 w_20679_4119# sky130_fd_pr__pfet_01v8_lvt ad=0p pd=0u as=0p ps=0u w=4e+06u l=1e+06u
X35 vss.t68 a_21819_2107.t42 vout.t53 vss sky130_fd_pr__nfet_01v8_lvt ad=0p pd=0u as=0p ps=0u w=1e+06u l=1e+06u
X36 vdd.t79 vbias.t59 vout.t102 vdd sky130_fd_pr__pfet_01v8_lvt ad=0p pd=0u as=0p ps=0u w=2e+06u l=1e+06u
X37 vout.t52 a_21819_2107.t43 vss.t67 vss sky130_fd_pr__nfet_01v8_lvt ad=0p pd=0u as=0p ps=0u w=1e+06u l=1e+06u
X38 vss.t66 a_21819_2107.t44 vout.t51 vss sky130_fd_pr__nfet_01v8_lvt ad=0p pd=0u as=0p ps=0u w=1e+06u l=1e+06u
X39 vout.t101 vbias.t60 vdd.t78 vdd sky130_fd_pr__pfet_01v8_lvt ad=0p pd=0u as=0p ps=0u w=2e+06u l=1e+06u
X40 vdd.t77 vbias.t61 vout.t100 vdd sky130_fd_pr__pfet_01v8_lvt ad=0p pd=0u as=0p ps=0u w=2e+06u l=1e+06u
X41 w_20679_4119.t40 vbias.t62 vdd.t76 vdd sky130_fd_pr__pfet_01v8_lvt ad=0p pd=0u as=0p ps=0u w=2e+06u l=1e+06u
X42 vdd.t75 vbias.t63 w_20679_4119.t39 vdd sky130_fd_pr__pfet_01v8_lvt ad=0p pd=0u as=0p ps=0u w=2e+06u l=1e+06u
X43 a_20875_2019.t34 a_20875_2019.t33 vss.t79 vss sky130_fd_pr__nfet_01v8_lvt ad=0p pd=0u as=0p ps=0u w=1e+06u l=1e+06u
X44 vdd.t74 vbias.t36 vbias.t37 vdd sky130_fd_pr__pfet_01v8_lvt ad=0p pd=0u as=0p ps=0u w=2e+06u l=1e+06u
X45 a_20875_2019.t32 a_20875_2019.t31 vss.t14 vss sky130_fd_pr__nfet_01v8_lvt ad=0p pd=0u as=0p ps=0u w=1e+06u l=1e+06u
X46 vss.t65 a_21819_2107.t45 vout.t50 vss sky130_fd_pr__nfet_01v8_lvt ad=0p pd=0u as=0p ps=0u w=1e+06u l=1e+06u
X47 vout.t99 vbias.t64 vdd.t73 vdd sky130_fd_pr__pfet_01v8_lvt ad=0p pd=0u as=0p ps=0u w=2e+06u l=1e+06u
X48 a_20875_2019.t30 a_20875_2019.t29 vss.t13 vss sky130_fd_pr__nfet_01v8_lvt ad=0p pd=0u as=0p ps=0u w=1e+06u l=1e+06u
X49 a_20875_2019.t28 a_20875_2019.t27 vss.t12 vss sky130_fd_pr__nfet_01v8_lvt ad=0p pd=0u as=0p ps=0u w=1e+06u l=1e+06u
X50 a_21819_2107.t10 vp.t5 w_20679_4119.t15 w_20679_4119# sky130_fd_pr__pfet_01v8_lvt ad=0p pd=0u as=0p ps=0u w=4e+06u l=1e+06u
X51 vss.t64 a_21819_2107.t46 vout.t49 vss sky130_fd_pr__nfet_01v8_lvt ad=0p pd=0u as=0p ps=0u w=1e+06u l=1e+06u
X52 vss.t63 a_21819_2107.t47 vout.t48 vss sky130_fd_pr__nfet_01v8_lvt ad=0p pd=0u as=0p ps=0u w=1e+06u l=1e+06u
X53 w_20679_4119.t43 vp.t6 a_21819_2107.t9 w_20679_4119# sky130_fd_pr__pfet_01v8_lvt ad=0p pd=0u as=0p ps=0u w=4e+06u l=1e+06u
X54 vdd.t72 vbias.t34 vbias.t35 vdd sky130_fd_pr__pfet_01v8_lvt ad=0p pd=0u as=0p ps=0u w=2e+06u l=1e+06u
X55 vdd.t71 vbias.t65 vout.t98 vdd sky130_fd_pr__pfet_01v8_lvt ad=0p pd=0u as=0p ps=0u w=2e+06u l=1e+06u
X56 vss.t62 a_21819_2107.t48 vout.t47 vss sky130_fd_pr__nfet_01v8_lvt ad=0p pd=0u as=0p ps=0u w=1e+06u l=1e+06u
X57 w_20679_4119.t38 vbias.t66 vdd.t70 vdd sky130_fd_pr__pfet_01v8_lvt ad=0p pd=0u as=0p ps=0u w=2e+06u l=1e+06u
X58 vdd.t69 vbias.t67 vout.t97 vdd sky130_fd_pr__pfet_01v8_lvt ad=0p pd=0u as=0p ps=0u w=2e+06u l=1e+06u
X59 vdd.t68 vbias.t32 vbias.t33 vdd sky130_fd_pr__pfet_01v8_lvt ad=0p pd=0u as=0p ps=0u w=2e+06u l=1e+06u
X60 vout.t46 a_21819_2107.t49 vss.t61 vss sky130_fd_pr__nfet_01v8_lvt ad=0p pd=0u as=0p ps=0u w=1e+06u l=1e+06u
X61 vss.t60 a_21819_2107.t50 vout.t45 vss sky130_fd_pr__nfet_01v8_lvt ad=0p pd=0u as=0p ps=0u w=1e+06u l=1e+06u
X62 vss.t82 a_20875_2019.t50 a_21819_2107.t18 vss sky130_fd_pr__nfet_01v8_lvt ad=0p pd=0u as=0p ps=0u w=1e+06u l=1e+06u
X63 vss.t83 a_20875_2019.t51 a_21819_2107.t19 vss sky130_fd_pr__nfet_01v8_lvt ad=0p pd=0u as=0p ps=0u w=1e+06u l=1e+06u
X64 vss.t59 a_21819_2107.t51 vout.t44 vss sky130_fd_pr__nfet_01v8_lvt ad=0p pd=0u as=0p ps=0u w=1e+06u l=1e+06u
X65 vout.t96 vbias.t68 vdd.t67 vdd sky130_fd_pr__pfet_01v8_lvt ad=0p pd=0u as=0p ps=0u w=2e+06u l=1e+06u
X66 vss.t58 a_21819_2107.t52 vout.t43 vss sky130_fd_pr__nfet_01v8_lvt ad=0p pd=0u as=0p ps=0u w=1e+06u l=1e+06u
X67 vout.t42 a_21819_2107.t53 vss.t57 vss sky130_fd_pr__nfet_01v8_lvt ad=0p pd=0u as=0p ps=0u w=1e+06u l=1e+06u
X68 vout.t41 a_21819_2107.t54 vss.t56 vss sky130_fd_pr__nfet_01v8_lvt ad=0p pd=0u as=0p ps=0u w=1e+06u l=1e+06u
X69 vdd.t66 vbias.t69 vout.t95 vdd sky130_fd_pr__pfet_01v8_lvt ad=0p pd=0u as=0p ps=0u w=2e+06u l=1e+06u
X70 vout.t40 a_21819_2107.t55 vss.t55 vss sky130_fd_pr__nfet_01v8_lvt ad=0p pd=0u as=0p ps=0u w=1e+06u l=1e+06u
X71 vss.t54 a_21819_2107.t56 vout.t39 vss sky130_fd_pr__nfet_01v8_lvt ad=0p pd=0u as=0p ps=0u w=1e+06u l=1e+06u
X72 vdd.t65 vbias.t30 vbias.t31 vdd sky130_fd_pr__pfet_01v8_lvt ad=0p pd=0u as=0p ps=0u w=2e+06u l=1e+06u
X73 vdd.t64 vbias.t70 vout.t94 vdd sky130_fd_pr__pfet_01v8_lvt ad=0p pd=0u as=0p ps=0u w=2e+06u l=1e+06u
X74 vdd.t63 vbias.t71 w_20679_4119.t37 vdd sky130_fd_pr__pfet_01v8_lvt ad=0p pd=0u as=0p ps=0u w=2e+06u l=1e+06u
X75 vout.t93 vbias.t72 vdd.t62 vdd sky130_fd_pr__pfet_01v8_lvt ad=0p pd=0u as=0p ps=0u w=2e+06u l=1e+06u
X76 vss.t11 a_20875_2019.t25 a_20875_2019.t26 vss sky130_fd_pr__nfet_01v8_lvt ad=0p pd=0u as=0p ps=0u w=1e+06u l=1e+06u
X77 vout.t92 vbias.t73 vdd.t61 vdd sky130_fd_pr__pfet_01v8_lvt ad=0p pd=0u as=0p ps=0u w=2e+06u l=1e+06u
X78 a_21819_2107.t20 a_20875_2019.t52 vss.t84 vss sky130_fd_pr__nfet_01v8_lvt ad=0p pd=0u as=0p ps=0u w=1e+06u l=1e+06u
X79 vdd.t60 vbias.t74 vout.t91 vdd sky130_fd_pr__pfet_01v8_lvt ad=0p pd=0u as=0p ps=0u w=2e+06u l=1e+06u
X80 vdd.t59 vbias.t75 vout.t90 vdd sky130_fd_pr__pfet_01v8_lvt ad=0p pd=0u as=0p ps=0u w=2e+06u l=1e+06u
X81 a_21819_2107.t21 a_20875_2019.t53 vss.t85 vss sky130_fd_pr__nfet_01v8_lvt ad=0p pd=0u as=0p ps=0u w=1e+06u l=1e+06u
X82 a_20875_2019.t46 vn.t2 w_20679_4119.t54 w_20679_4119# sky130_fd_pr__pfet_01v8_lvt ad=0p pd=0u as=0p ps=0u w=4e+06u l=1e+06u
X83 vout.t38 a_21819_2107.t57 vss.t53 vss sky130_fd_pr__nfet_01v8_lvt ad=0p pd=0u as=0p ps=0u w=1e+06u l=1e+06u
X84 vss.t52 a_21819_2107.t58 vout.t37 vss sky130_fd_pr__nfet_01v8_lvt ad=0p pd=0u as=0p ps=0u w=1e+06u l=1e+06u
X85 a_20875_2019.t1 vn.t3 w_20679_4119.t1 w_20679_4119# sky130_fd_pr__pfet_01v8_lvt ad=0p pd=0u as=0p ps=0u w=4e+06u l=1e+06u
X86 vss.t51 a_21819_2107.t59 vout.t36 vss sky130_fd_pr__nfet_01v8_lvt ad=0p pd=0u as=0p ps=0u w=1e+06u l=1e+06u
X87 vss.t10 a_20875_2019.t23 a_20875_2019.t24 vss sky130_fd_pr__nfet_01v8_lvt ad=0p pd=0u as=0p ps=0u w=1e+06u l=1e+06u
X88 vdd.t58 vbias.t76 w_20679_4119.t36 vdd sky130_fd_pr__pfet_01v8_lvt ad=0p pd=0u as=0p ps=0u w=2e+06u l=1e+06u
X89 vbias.t29 vbias.t28 vdd.t57 vdd sky130_fd_pr__pfet_01v8_lvt ad=0p pd=0u as=0p ps=0u w=2e+06u l=1e+06u
X90 vdd.t56 vbias.t77 vout.t89 vdd sky130_fd_pr__pfet_01v8_lvt ad=0p pd=0u as=0p ps=0u w=2e+06u l=1e+06u
X91 vdd.t55 vbias.t26 vbias.t27 vdd sky130_fd_pr__pfet_01v8_lvt ad=0p pd=0u as=0p ps=0u w=2e+06u l=1e+06u
X92 w_20679_4119.t2 vn.t4 a_20875_2019.t2 w_20679_4119# sky130_fd_pr__pfet_01v8_lvt ad=0p pd=0u as=0p ps=0u w=4e+06u l=1e+06u
X93 vout.t35 a_21819_2107.t60 vss.t50 vss sky130_fd_pr__nfet_01v8_lvt ad=0p pd=0u as=0p ps=0u w=1e+06u l=1e+06u
X94 vss.t9 a_20875_2019.t21 a_20875_2019.t22 vss sky130_fd_pr__nfet_01v8_lvt ad=0p pd=0u as=0p ps=0u w=1e+06u l=1e+06u
X95 vout.t88 vbias.t78 vdd.t54 vdd sky130_fd_pr__pfet_01v8_lvt ad=0p pd=0u as=0p ps=0u w=2e+06u l=1e+06u
X96 vdd.t53 vbias.t79 w_20679_4119.t35 vdd sky130_fd_pr__pfet_01v8_lvt ad=0p pd=0u as=0p ps=0u w=2e+06u l=1e+06u
X97 vout.t34 a_21819_2107.t61 vss.t49 vss sky130_fd_pr__nfet_01v8_lvt ad=0p pd=0u as=0p ps=0u w=1e+06u l=1e+06u
X98 w_20679_4119.t34 vbias.t80 vdd.t52 vdd sky130_fd_pr__pfet_01v8_lvt ad=0p pd=0u as=0p ps=0u w=2e+06u l=1e+06u
X99 vdd.t51 vbias.t81 vout.t87 vdd sky130_fd_pr__pfet_01v8_lvt ad=0p pd=0u as=0p ps=0u w=2e+06u l=1e+06u
X100 vss.t86 a_20875_2019.t54 a_21819_2107.t22 vss sky130_fd_pr__nfet_01v8_lvt ad=0p pd=0u as=0p ps=0u w=1e+06u l=1e+06u
X101 vbias.t25 vbias.t24 vdd.t50 vdd sky130_fd_pr__pfet_01v8_lvt ad=0p pd=0u as=0p ps=0u w=2e+06u l=1e+06u
X102 vss.t87 a_20875_2019.t55 a_21819_2107.t23 vss sky130_fd_pr__nfet_01v8_lvt ad=0p pd=0u as=0p ps=0u w=1e+06u l=1e+06u
X103 w_20679_4119.t44 vp.t7 a_21819_2107.t8 w_20679_4119# sky130_fd_pr__pfet_01v8_lvt ad=0p pd=0u as=0p ps=0u w=4e+06u l=1e+06u
X104 vout.t86 vbias.t82 vdd.t49 vdd sky130_fd_pr__pfet_01v8_lvt ad=0p pd=0u as=0p ps=0u w=2e+06u l=1e+06u
X105 vss.t8 a_20875_2019.t19 a_20875_2019.t20 vss sky130_fd_pr__nfet_01v8_lvt ad=0p pd=0u as=0p ps=0u w=1e+06u l=1e+06u
X106 vout.t33 a_21819_2107.t62 vss.t48 vss sky130_fd_pr__nfet_01v8_lvt ad=0p pd=0u as=0p ps=0u w=1e+06u l=1e+06u
X107 vout.t32 a_21819_2107.t63 vss.t47 vss sky130_fd_pr__nfet_01v8_lvt ad=0p pd=0u as=0p ps=0u w=1e+06u l=1e+06u
X108 w_20679_4119.t33 vbias.t83 vdd.t48 vdd sky130_fd_pr__pfet_01v8_lvt ad=0p pd=0u as=0p ps=0u w=2e+06u l=1e+06u
X109 vout.t31 a_21819_2107.t64 vss.t46 vss sky130_fd_pr__nfet_01v8_lvt ad=0p pd=0u as=0p ps=0u w=1e+06u l=1e+06u
X110 vdd.t47 vbias.t84 w_20679_4119.t32 vdd sky130_fd_pr__pfet_01v8_lvt ad=0p pd=0u as=0p ps=0u w=2e+06u l=1e+06u
X111 w_20679_4119.t0 vn.t5 a_20875_2019.t0 w_20679_4119# sky130_fd_pr__pfet_01v8_lvt ad=0p pd=0u as=0p ps=0u w=4e+06u l=1e+06u
X112 vbias.t23 vbias.t22 vdd.t46 vdd sky130_fd_pr__pfet_01v8_lvt ad=0p pd=0u as=0p ps=0u w=2e+06u l=1e+06u
X113 vout.t85 vbias.t85 vdd.t45 vdd sky130_fd_pr__pfet_01v8_lvt ad=0p pd=0u as=0p ps=0u w=2e+06u l=1e+06u
X114 a_21819_2107.t24 a_20875_2019.t56 vss.t88 vss sky130_fd_pr__nfet_01v8_lvt ad=0p pd=0u as=0p ps=0u w=1e+06u l=1e+06u
X115 vout.t84 vbias.t86 vdd.t44 vdd sky130_fd_pr__pfet_01v8_lvt ad=0p pd=0u as=0p ps=0u w=2e+06u l=1e+06u
X116 w_20679_4119.t31 vbias.t87 vdd.t43 vdd sky130_fd_pr__pfet_01v8_lvt ad=0p pd=0u as=0p ps=0u w=2e+06u l=1e+06u
X117 vout.t83 vbias.t88 vdd.t42 vdd sky130_fd_pr__pfet_01v8_lvt ad=0p pd=0u as=0p ps=0u w=2e+06u l=1e+06u
X118 a_21819_2107.t7 vp.t8 w_20679_4119.t45 w_20679_4119# sky130_fd_pr__pfet_01v8_lvt ad=0p pd=0u as=0p ps=0u w=4e+06u l=1e+06u
X119 vout.t30 a_21819_2107.t65 vss.t45 vss sky130_fd_pr__nfet_01v8_lvt ad=0p pd=0u as=0p ps=0u w=1e+06u l=1e+06u
X120 vout.t29 a_21819_2107.t66 vss.t44 vss sky130_fd_pr__nfet_01v8_lvt ad=0p pd=0u as=0p ps=0u w=1e+06u l=1e+06u
X121 vbias.t21 vbias.t20 vdd.t41 vdd sky130_fd_pr__pfet_01v8_lvt ad=0p pd=0u as=0p ps=0u w=2e+06u l=1e+06u
X122 w_20679_4119.t5 vn.t6 a_20875_2019.t35 w_20679_4119# sky130_fd_pr__pfet_01v8_lvt ad=0p pd=0u as=0p ps=0u w=4e+06u l=1e+06u
X123 a_21819_2107.t25 a_20875_2019.t57 vss.t89 vss sky130_fd_pr__nfet_01v8_lvt ad=0p pd=0u as=0p ps=0u w=1e+06u l=1e+06u
X124 vss.t43 a_21819_2107.t67 vout.t28 vss sky130_fd_pr__nfet_01v8_lvt ad=0p pd=0u as=0p ps=0u w=1e+06u l=1e+06u
X125 vss.t42 a_21819_2107.t68 vout.t27 vss sky130_fd_pr__nfet_01v8_lvt ad=0p pd=0u as=0p ps=0u w=1e+06u l=1e+06u
X126 vdd.t40 vbias.t18 vbias.t19 vdd sky130_fd_pr__pfet_01v8_lvt ad=0p pd=0u as=0p ps=0u w=2e+06u l=1e+06u
X127 vbias.t17 vbias.t16 vdd.t39 vdd sky130_fd_pr__pfet_01v8_lvt ad=0p pd=0u as=0p ps=0u w=2e+06u l=1e+06u
X128 vdd.t38 vbias.t89 w_20679_4119.t30 vdd sky130_fd_pr__pfet_01v8_lvt ad=0p pd=0u as=0p ps=0u w=2e+06u l=1e+06u
X129 vout.t82 vbias.t90 vdd.t37 vdd sky130_fd_pr__pfet_01v8_lvt ad=0p pd=0u as=0p ps=0u w=2e+06u l=1e+06u
X130 vbias.t15 vbias.t14 vdd.t36 vdd sky130_fd_pr__pfet_01v8_lvt ad=0p pd=0u as=0p ps=0u w=2e+06u l=1e+06u
X131 a_21819_2107.t6 vp.t9 w_20679_4119.t46 w_20679_4119# sky130_fd_pr__pfet_01v8_lvt ad=0p pd=0u as=0p ps=0u w=4e+06u l=1e+06u
X132 vdd.t35 vbias.t12 vbias.t13 vdd sky130_fd_pr__pfet_01v8_lvt ad=0p pd=0u as=0p ps=0u w=2e+06u l=1e+06u
X133 vout.t26 a_21819_2107.t69 vss.t41 vss sky130_fd_pr__nfet_01v8_lvt ad=0p pd=0u as=0p ps=0u w=1e+06u l=1e+06u
X134 vss.t40 a_21819_2107.t70 vout.t25 vss sky130_fd_pr__nfet_01v8_lvt ad=0p pd=0u as=0p ps=0u w=1e+06u l=1e+06u
X135 vdd.t34 vbias.t91 vout.t81 vdd sky130_fd_pr__pfet_01v8_lvt ad=0p pd=0u as=0p ps=0u w=2e+06u l=1e+06u
X136 w_20679_4119.t47 vp.t10 a_21819_2107.t5 w_20679_4119# sky130_fd_pr__pfet_01v8_lvt ad=0p pd=0u as=0p ps=0u w=4e+06u l=1e+06u
X137 vout.t24 a_21819_2107.t71 vss.t39 vss sky130_fd_pr__nfet_01v8_lvt ad=0p pd=0u as=0p ps=0u w=1e+06u l=1e+06u
X138 vss.t38 a_21819_2107.t72 vout.t23 vss sky130_fd_pr__nfet_01v8_lvt ad=0p pd=0u as=0p ps=0u w=1e+06u l=1e+06u
X139 vout.t22 a_21819_2107.t73 vss.t37 vss sky130_fd_pr__nfet_01v8_lvt ad=0p pd=0u as=0p ps=0u w=1e+06u l=1e+06u
X140 vss.t36 a_21819_2107.t74 vout.t21 vss sky130_fd_pr__nfet_01v8_lvt ad=0p pd=0u as=0p ps=0u w=1e+06u l=1e+06u
X141 w_20679_4119.t29 vbias.t92 vdd.t33 vdd sky130_fd_pr__pfet_01v8_lvt ad=0p pd=0u as=0p ps=0u w=2e+06u l=1e+06u
X142 w_20679_4119.t6 vn.t7 a_20875_2019.t36 w_20679_4119# sky130_fd_pr__pfet_01v8_lvt ad=0p pd=0u as=0p ps=0u w=4e+06u l=1e+06u
X143 w_20679_4119.t7 vn.t8 a_20875_2019.t37 w_20679_4119# sky130_fd_pr__pfet_01v8_lvt ad=0p pd=0u as=0p ps=0u w=4e+06u l=1e+06u
X144 vdd.t32 vbias.t93 w_20679_4119.t28 vdd sky130_fd_pr__pfet_01v8_lvt ad=0p pd=0u as=0p ps=0u w=2e+06u l=1e+06u
X145 vdd.t31 vbias.t94 w_20679_4119.t27 vdd sky130_fd_pr__pfet_01v8_lvt ad=0p pd=0u as=0p ps=0u w=2e+06u l=1e+06u
X146 vout.t20 a_21819_2107.t75 vss.t35 vss sky130_fd_pr__nfet_01v8_lvt ad=0p pd=0u as=0p ps=0u w=1e+06u l=1e+06u
X147 vout.t80 vbias.t95 vdd.t30 vdd sky130_fd_pr__pfet_01v8_lvt ad=0p pd=0u as=0p ps=0u w=2e+06u l=1e+06u
X148 vss.t34 a_21819_2107.t76 vout.t19 vss sky130_fd_pr__nfet_01v8_lvt ad=0p pd=0u as=0p ps=0u w=1e+06u l=1e+06u
X149 a_20875_2019.t18 a_20875_2019.t17 vss.t7 vss sky130_fd_pr__nfet_01v8_lvt ad=0p pd=0u as=0p ps=0u w=1e+06u l=1e+06u
X150 w_20679_4119.t26 vbias.t96 vdd.t29 vdd sky130_fd_pr__pfet_01v8_lvt ad=0p pd=0u as=0p ps=0u w=2e+06u l=1e+06u
X151 vdd.t28 vbias.t97 w_20679_4119.t25 vdd sky130_fd_pr__pfet_01v8_lvt ad=0p pd=0u as=0p ps=0u w=2e+06u l=1e+06u
X152 vdd.t27 vbias.t98 vout.t79 vdd sky130_fd_pr__pfet_01v8_lvt ad=0p pd=0u as=0p ps=0u w=2e+06u l=1e+06u
X153 a_20875_2019.t16 a_20875_2019.t15 vss.t6 vss sky130_fd_pr__nfet_01v8_lvt ad=0p pd=0u as=0p ps=0u w=1e+06u l=1e+06u
X154 vss.t33 a_21819_2107.t77 vout.t18 vss sky130_fd_pr__nfet_01v8_lvt ad=0p pd=0u as=0p ps=0u w=1e+06u l=1e+06u
X155 vout.t78 vbias.t99 vdd.t26 vdd sky130_fd_pr__pfet_01v8_lvt ad=0p pd=0u as=0p ps=0u w=2e+06u l=1e+06u
X156 vdd.t25 vbias.t100 vout.t77 vdd sky130_fd_pr__pfet_01v8_lvt ad=0p pd=0u as=0p ps=0u w=2e+06u l=1e+06u
X157 vout.t76 vbias.t101 vdd.t24 vdd sky130_fd_pr__pfet_01v8_lvt ad=0p pd=0u as=0p ps=0u w=2e+06u l=1e+06u
X158 w_20679_4119.t8 vn.t9 a_20875_2019.t38 w_20679_4119# sky130_fd_pr__pfet_01v8_lvt ad=0p pd=0u as=0p ps=0u w=4e+06u l=1e+06u
X159 a_20875_2019.t14 a_20875_2019.t13 vss.t5 vss sky130_fd_pr__nfet_01v8_lvt ad=0p pd=0u as=0p ps=0u w=1e+06u l=1e+06u
X160 vss.t32 a_21819_2107.t78 vout.t17 vss sky130_fd_pr__nfet_01v8_lvt ad=0p pd=0u as=0p ps=0u w=1e+06u l=1e+06u
X161 vss.t31 a_21819_2107.t79 vout.t16 vss sky130_fd_pr__nfet_01v8_lvt ad=0p pd=0u as=0p ps=0u w=1e+06u l=1e+06u
X162 a_21819_2107.t4 vp.t11 w_20679_4119.t48 w_20679_4119# sky130_fd_pr__pfet_01v8_lvt ad=0p pd=0u as=0p ps=0u w=4e+06u l=1e+06u
X163 a_20875_2019.t12 a_20875_2019.t11 vss.t4 vss sky130_fd_pr__nfet_01v8_lvt ad=0p pd=0u as=0p ps=0u w=1e+06u l=1e+06u
X164 vdd.t23 vbias.t10 vbias.t11 vdd sky130_fd_pr__pfet_01v8_lvt ad=0p pd=0u as=0p ps=0u w=2e+06u l=1e+06u
X165 vdd.t22 vbias.t102 w_20679_4119.t24 vdd sky130_fd_pr__pfet_01v8_lvt ad=0p pd=0u as=0p ps=0u w=2e+06u l=1e+06u
X166 a_20875_2019.t39 vn.t10 w_20679_4119.t9 w_20679_4119# sky130_fd_pr__pfet_01v8_lvt ad=0p pd=0u as=0p ps=0u w=4e+06u l=1e+06u
X167 vss.t30 a_21819_2107.t80 vout.t15 vss sky130_fd_pr__nfet_01v8_lvt ad=0p pd=0u as=0p ps=0u w=1e+06u l=1e+06u
X168 w_20679_4119.t23 vbias.t103 vdd.t21 vdd sky130_fd_pr__pfet_01v8_lvt ad=0p pd=0u as=0p ps=0u w=2e+06u l=1e+06u
X169 vbias.t9 vbias.t8 vdd.t20 vdd sky130_fd_pr__pfet_01v8_lvt ad=0p pd=0u as=0p ps=0u w=2e+06u l=1e+06u
X170 vdd.t19 vbias.t104 vout.t75 vdd sky130_fd_pr__pfet_01v8_lvt ad=0p pd=0u as=0p ps=0u w=2e+06u l=1e+06u
X171 a_20875_2019.t40 vn.t11 w_20679_4119.t10 w_20679_4119# sky130_fd_pr__pfet_01v8_lvt ad=0p pd=0u as=0p ps=0u w=4e+06u l=1e+06u
X172 vss.t90 a_20875_2019.t58 a_21819_2107.t26 vss sky130_fd_pr__nfet_01v8_lvt ad=0p pd=0u as=0p ps=0u w=1e+06u l=1e+06u
X173 vdd.t18 vbias.t6 vbias.t7 vdd sky130_fd_pr__pfet_01v8_lvt ad=0p pd=0u as=0p ps=0u w=2e+06u l=1e+06u
X174 vss.t29 a_21819_2107.t81 vout.t14 vss sky130_fd_pr__nfet_01v8_lvt ad=0p pd=0u as=0p ps=0u w=1e+06u l=1e+06u
X175 vdd.t17 vbias.t105 vout.t74 vdd sky130_fd_pr__pfet_01v8_lvt ad=0p pd=0u as=0p ps=0u w=2e+06u l=1e+06u
X176 vout.t13 a_21819_2107.t82 vss.t28 vss sky130_fd_pr__nfet_01v8_lvt ad=0p pd=0u as=0p ps=0u w=1e+06u l=1e+06u
X177 vdd.t16 vbias.t106 w_20679_4119.t22 vdd sky130_fd_pr__pfet_01v8_lvt ad=0p pd=0u as=0p ps=0u w=2e+06u l=1e+06u
X178 vdd.t15 vbias.t107 vout.t73 vdd sky130_fd_pr__pfet_01v8_lvt ad=0p pd=0u as=0p ps=0u w=2e+06u l=1e+06u
X179 vout.t72 vbias.t108 vdd.t14 vdd sky130_fd_pr__pfet_01v8_lvt ad=0p pd=0u as=0p ps=0u w=2e+06u l=1e+06u
X180 vss.t27 a_21819_2107.t83 vout.t12 vss sky130_fd_pr__nfet_01v8_lvt ad=0p pd=0u as=0p ps=0u w=1e+06u l=1e+06u
X181 vout.t11 a_21819_2107.t84 vss.t26 vss sky130_fd_pr__nfet_01v8_lvt ad=0p pd=0u as=0p ps=0u w=1e+06u l=1e+06u
X182 vss.t25 a_21819_2107.t85 vout.t10 vss sky130_fd_pr__nfet_01v8_lvt ad=0p pd=0u as=0p ps=0u w=1e+06u l=1e+06u
X183 vout.t9 a_21819_2107.t86 vss.t24 vss sky130_fd_pr__nfet_01v8_lvt ad=0p pd=0u as=0p ps=0u w=1e+06u l=1e+06u
X184 a_21819_2107.t3 vp.t12 w_20679_4119.t49 w_20679_4119# sky130_fd_pr__pfet_01v8_lvt ad=0p pd=0u as=0p ps=0u w=4e+06u l=1e+06u
X185 vss.t91 a_20875_2019.t59 a_21819_2107.t27 vss sky130_fd_pr__nfet_01v8_lvt ad=0p pd=0u as=0p ps=0u w=1e+06u l=1e+06u
X186 vbias.t5 vbias.t4 vdd.t13 vdd sky130_fd_pr__pfet_01v8_lvt ad=0p pd=0u as=0p ps=0u w=2e+06u l=1e+06u
X187 vout.t71 vbias.t109 vdd.t12 vdd sky130_fd_pr__pfet_01v8_lvt ad=0p pd=0u as=0p ps=0u w=2e+06u l=1e+06u
X188 vss.t23 a_21819_2107.t87 vout.t8 vss sky130_fd_pr__nfet_01v8_lvt ad=0p pd=0u as=0p ps=0u w=1e+06u l=1e+06u
X189 vdd.t11 vbias.t110 vout.t70 vdd sky130_fd_pr__pfet_01v8_lvt ad=0p pd=0u as=0p ps=0u w=2e+06u l=1e+06u
X190 w_20679_4119.t21 vbias.t111 vdd.t10 vdd sky130_fd_pr__pfet_01v8_lvt ad=0p pd=0u as=0p ps=0u w=2e+06u l=1e+06u
X191 w_20679_4119.t50 vp.t13 a_21819_2107.t2 w_20679_4119# sky130_fd_pr__pfet_01v8_lvt ad=0p pd=0u as=0p ps=0u w=4e+06u l=1e+06u
X192 vout.t7 a_21819_2107.t88 vss.t22 vss sky130_fd_pr__nfet_01v8_lvt ad=0p pd=0u as=0p ps=0u w=1e+06u l=1e+06u
X193 a_21819_2107.t28 a_20875_2019.t60 vss.t92 vss sky130_fd_pr__nfet_01v8_lvt ad=0p pd=0u as=0p ps=0u w=1e+06u l=1e+06u
X194 vout.t69 vbias.t112 vdd.t9 vdd sky130_fd_pr__pfet_01v8_lvt ad=0p pd=0u as=0p ps=0u w=2e+06u l=1e+06u
X195 vss.t21 a_21819_2107.t89 vout.t6 vss sky130_fd_pr__nfet_01v8_lvt ad=0p pd=0u as=0p ps=0u w=1e+06u l=1e+06u
X196 vout.t68 vbias.t113 vdd.t8 vdd sky130_fd_pr__pfet_01v8_lvt ad=0p pd=0u as=0p ps=0u w=2e+06u l=1e+06u
X197 vdd.t7 vbias.t114 vout.t67 vdd sky130_fd_pr__pfet_01v8_lvt ad=0p pd=0u as=0p ps=0u w=2e+06u l=1e+06u
X198 vss.t3 a_20875_2019.t9 a_20875_2019.t10 vss sky130_fd_pr__nfet_01v8_lvt ad=0p pd=0u as=0p ps=0u w=1e+06u l=1e+06u
X199 vss.t2 a_20875_2019.t7 a_20875_2019.t8 vss sky130_fd_pr__nfet_01v8_lvt ad=0p pd=0u as=0p ps=0u w=1e+06u l=1e+06u
X200 a_20875_2019.t41 vn.t12 w_20679_4119.t11 w_20679_4119# sky130_fd_pr__pfet_01v8_lvt ad=0p pd=0u as=0p ps=0u w=4e+06u l=1e+06u
X201 a_21819_2107.t29 a_20875_2019.t61 vss.t93 vss sky130_fd_pr__nfet_01v8_lvt ad=0p pd=0u as=0p ps=0u w=1e+06u l=1e+06u
X202 vout.t5 a_21819_2107.t90 vss.t20 vss sky130_fd_pr__nfet_01v8_lvt ad=0p pd=0u as=0p ps=0u w=1e+06u l=1e+06u
X203 vout.t4 a_21819_2107.t91 vss.t19 vss sky130_fd_pr__nfet_01v8_lvt ad=0p pd=0u as=0p ps=0u w=1e+06u l=1e+06u
X204 vdd.t6 vbias.t115 w_20679_4119.t20 vdd sky130_fd_pr__pfet_01v8_lvt ad=0p pd=0u as=0p ps=0u w=2e+06u l=1e+06u
X205 a_20875_2019.t42 vn.t13 w_20679_4119.t12 w_20679_4119# sky130_fd_pr__pfet_01v8_lvt ad=0p pd=0u as=0p ps=0u w=4e+06u l=1e+06u
X206 vss.t18 a_21819_2107.t92 vout.t3 vss sky130_fd_pr__nfet_01v8_lvt ad=0p pd=0u as=0p ps=0u w=1e+06u l=1e+06u
X207 vbias.t3 vbias.t2 vdd.t5 vdd sky130_fd_pr__pfet_01v8_lvt ad=0p pd=0u as=0p ps=0u w=2e+06u l=1e+06u
X208 a_21819_2107.t1 vp.t14 w_20679_4119.t51 w_20679_4119# sky130_fd_pr__pfet_01v8_lvt ad=0p pd=0u as=0p ps=0u w=4e+06u l=1e+06u
X209 vdd.t4 vbias.t116 vout.t66 vdd sky130_fd_pr__pfet_01v8_lvt ad=0p pd=0u as=0p ps=0u w=2e+06u l=1e+06u
X210 vss.t94 a_20875_2019.t62 a_21819_2107.t30 vss sky130_fd_pr__nfet_01v8_lvt ad=0p pd=0u as=0p ps=0u w=1e+06u l=1e+06u
X211 vout.t65 vbias.t117 vdd.t3 vdd sky130_fd_pr__pfet_01v8_lvt ad=0p pd=0u as=0p ps=0u w=2e+06u l=1e+06u
X212 vdd.t2 vbias.t118 vout.t64 vdd sky130_fd_pr__pfet_01v8_lvt ad=0p pd=0u as=0p ps=0u w=2e+06u l=1e+06u
X213 vss.t1 a_20875_2019.t5 a_20875_2019.t6 vss sky130_fd_pr__nfet_01v8_lvt ad=0p pd=0u as=0p ps=0u w=1e+06u l=1e+06u
X214 vout.t2 a_21819_2107.t93 vss.t17 vss sky130_fd_pr__nfet_01v8_lvt ad=0p pd=0u as=0p ps=0u w=1e+06u l=1e+06u
X215 vss.t0 a_20875_2019.t3 a_20875_2019.t4 vss sky130_fd_pr__nfet_01v8_lvt ad=0p pd=0u as=0p ps=0u w=1e+06u l=1e+06u
X216 vout.t1 a_21819_2107.t94 vss.t16 vss sky130_fd_pr__nfet_01v8_lvt ad=0p pd=0u as=0p ps=0u w=1e+06u l=1e+06u
X217 w_20679_4119.t19 vbias.t119 vdd.t1 vdd sky130_fd_pr__pfet_01v8_lvt ad=0p pd=0u as=0p ps=0u w=2e+06u l=1e+06u
X218 vout.t0 a_21819_2107.t95 vss.t15 vss sky130_fd_pr__nfet_01v8_lvt ad=0p pd=0u as=0p ps=0u w=1e+06u l=1e+06u
X219 a_20875_2019.t43 vn.t14 w_20679_4119.t13 w_20679_4119# sky130_fd_pr__pfet_01v8_lvt ad=0p pd=0u as=0p ps=0u w=4e+06u l=1e+06u
X220 a_20875_2019.t44 vn.t15 w_20679_4119.t14 w_20679_4119# sky130_fd_pr__pfet_01v8_lvt ad=0p pd=0u as=0p ps=0u w=4e+06u l=1e+06u
X221 w_20679_4119.t52 vp.t15 a_21819_2107.t0 w_20679_4119# sky130_fd_pr__pfet_01v8_lvt ad=0p pd=0u as=0p ps=0u w=4e+06u l=1e+06u
X222 vss.t95 a_20875_2019.t63 a_21819_2107.t31 vss sky130_fd_pr__nfet_01v8_lvt ad=0p pd=0u as=0p ps=0u w=1e+06u l=1e+06u
X223 vdd.t0 vbias.t0 vbias.t1 vdd sky130_fd_pr__pfet_01v8_lvt ad=0p pd=0u as=0p ps=0u w=2e+06u l=1e+06u
C0 vn vp 1.91fF
C1 vdd vbias 34.89fF
C2 vdd vout 13.38fF
C3 vbias vout 9.42fF
R0 vbias.n128 vbias.t6 63.632
R1 vbias.n195 vbias.t30 63.63
R2 vbias.n87 vbias.t36 63.63
R3 vbias.n194 vbias.t103 63.63
R4 vbias.n19 vbias.t90 63.63
R5 vbias.n105 vbias.t109 63.63
R6 vbias.n105 vbias.t85 63.63
R7 vbias.n20 vbias.t110 63.63
R8 vbias.n106 vbias.t77 63.63
R9 vbias.n106 vbias.t55 63.63
R10 vbias.n18 vbias.t74 63.63
R11 vbias.n104 vbias.t65 63.63
R12 vbias.n104 vbias.t116 63.63
R13 vbias.n21 vbias.t54 63.63
R14 vbias.n107 vbias.t86 63.63
R15 vbias.n107 vbias.t64 63.63
R16 vbias.n23 vbias.t108 63.63
R17 vbias.n109 vbias.t78 63.63
R18 vbias.n109 vbias.t58 63.63
R19 vbias.n24 vbias.t59 63.63
R20 vbias.n110 vbias.t98 63.63
R21 vbias.n110 vbias.t75 63.63
R22 vbias.n22 vbias.t69 63.63
R23 vbias.n108 vbias.t57 63.63
R24 vbias.n108 vbias.t107 63.63
R25 vbias.n25 vbias.t101 63.63
R26 vbias.n111 vbias.t50 63.63
R27 vbias.n111 vbias.t99 63.63
R28 vbias.n27 vbias.t68 63.63
R29 vbias.n113 vbias.t112 63.63
R30 vbias.n113 vbias.t88 63.63
R31 vbias.n28 vbias.t105 63.63
R32 vbias.n114 vbias.t61 63.63
R33 vbias.n114 vbias.t114 63.63
R34 vbias.n26 vbias.t53 63.63
R35 vbias.n112 vbias.t67 63.63
R36 vbias.n112 vbias.t118 63.63
R37 vbias.n29 vbias.t82 63.63
R38 vbias.n115 vbias.t60 63.63
R39 vbias.n115 vbias.t113 63.63
R40 vbias.n31 vbias.t117 63.63
R41 vbias.n117 vbias.t72 63.63
R42 vbias.n117 vbias.t52 63.63
R43 vbias.n32 vbias.t91 63.63
R44 vbias.n118 vbias.t70 63.63
R45 vbias.n118 vbias.t51 63.63
R46 vbias.n30 vbias.t100 63.63
R47 vbias.n116 vbias.t104 63.63
R48 vbias.n116 vbias.t81 63.63
R49 vbias.n63 vbias.t66 63.63
R50 vbias.n126 vbias.t111 63.63
R51 vbias.n126 vbias.t87 63.63
R52 vbias.n159 vbias.t38 63.63
R53 vbias.n159 vbias.t28 63.63
R54 vbias.n77 vbias.t40 63.63
R55 vbias.n64 vbias.t12 63.63
R56 vbias.n103 vbias.t42 63.63
R57 vbias.n62 vbias.t97 63.63
R58 vbias.n125 vbias.t84 63.63
R59 vbias.n125 vbias.t63 63.63
R60 vbias.n33 vbias.t56 63.63
R61 vbias.n119 vbias.t95 63.63
R62 vbias.n119 vbias.t73 63.63
R63 vbias.n123 vbias.t14 63.63
R64 vbias.n35 vbias.t24 63.63
R65 vbias.n123 vbias.t2 63.63
R66 vbias.n78 vbias.t94 63.63
R67 vbias.n161 vbias.t102 63.63
R68 vbias.n161 vbias.t79 63.63
R69 vbias.n83 vbias.t76 63.63
R70 vbias.n188 vbias.t115 63.63
R71 vbias.n188 vbias.t89 63.63
R72 vbias.n189 vbias.t62 63.63
R73 vbias.n190 vbias.t26 63.63
R74 vbias.n192 vbias.t8 63.63
R75 vbias.n192 vbias.t44 63.63
R76 vbias.n85 vbias.t0 63.63
R77 vbias.n190 vbias.t10 63.63
R78 vbias.n163 vbias.t18 63.63
R79 vbias.n80 vbias.t34 63.63
R80 vbias.n82 vbias.t16 63.63
R81 vbias.n186 vbias.t4 63.63
R82 vbias.n163 vbias.t32 63.63
R83 vbias.n186 vbias.t22 63.63
R84 vbias.n79 vbias.t49 63.63
R85 vbias.n162 vbias.t48 63.63
R86 vbias.n162 vbias.t96 63.63
R87 vbias.n90 vbias.t106 63.63
R88 vbias.n193 vbias.t93 63.63
R89 vbias.n193 vbias.t71 63.63
R90 vbias.n194 vbias.t80 63.63
R91 vbias.n189 vbias.t83 63.63
R92 vbias.n84 vbias.t92 63.63
R93 vbias.n91 vbias.t20 63.63
R94 vbias.n89 vbias.t119 63.63
R95 vbias.n195 vbias.t46 63.63
R96 vbias.n0 vbias.t31 14.295
R97 vbias.n9 vbias.t37 14.295
R98 vbias.n156 vbias.t39 14.295
R99 vbias.n156 vbias.t7 14.295
R100 vbias.n132 vbias.t43 14.295
R101 vbias.n132 vbias.t29 14.295
R102 vbias.n74 vbias.t13 14.295
R103 vbias.n74 vbias.t41 14.295
R104 vbias.n134 vbias.t15 14.295
R105 vbias.n53 vbias.t25 14.295
R106 vbias.n56 vbias.t3 14.295
R107 vbias.n101 vbias.t9 14.295
R108 vbias.n101 vbias.t27 14.295
R109 vbias.n94 vbias.t11 14.295
R110 vbias.n94 vbias.t45 14.295
R111 vbias.n17 vbias.t1 14.295
R112 vbias.n17 vbias.t21 14.295
R113 vbias.n183 vbias.t33 14.295
R114 vbias.n183 vbias.t23 14.295
R115 vbias.n173 vbias.t19 14.295
R116 vbias.n173 vbias.t5 14.295
R117 vbias.n171 vbias.t17 14.295
R118 vbias.n171 vbias.t35 14.295
R119 vbias.n3 vbias.t47 14.295
R120 vbias.n196 vbias.n0 3.25
R121 vbias.n196 vbias.n3 1.139
R122 vbias.n3 vbias.n2 0.874
R123 vbias.n10 vbias.n9 0.87
R124 vbias.n53 vbias.n52 0.823
R125 vbias.n150 vbias.n134 0.823
R126 vbias.n54 vbias.n53 0.594
R127 vbias.n57 vbias.n56 0.58
R128 vbias.n13 vbias.n12 0.577
R129 vbias.n37 vbias.n36 0.575
R130 vbias.n38 vbias.n37 0.575
R131 vbias.n39 vbias.n38 0.575
R132 vbias.n41 vbias.n40 0.575
R133 vbias.n42 vbias.n41 0.575
R134 vbias.n40 vbias.n39 0.575
R135 vbias.n43 vbias.n42 0.575
R136 vbias.n45 vbias.n44 0.575