* NGSPICE file created from OTA_post.ext - technology: sky130A

.subckt OTA_post vdd vp vn vbias vss vout
X0 vss.t83 a_n6538_n5814.t17 vout.t91 vss sky130_fd_pr__nfet_01v8_lvt ad=0p pd=0u as=0p ps=0u w=3e+06u l=350000u
X1 vout.t44 vbias.t24 vdd.t143 vdd sky130_fd_pr__pfet_01v8_lvt ad=0p pd=0u as=0p ps=0u w=4e+06u l=2e+06u
X2 a_n3094_n11100.t11 vp.t0 a_n6538_n5814.t1 vdd sky130_fd_pr__pfet_01v8_lvt ad=0p pd=0u as=0p ps=0u w=4e+06u l=350000u
X3 vss.t82 a_n6538_n5814.t18 vout.t107 vss sky130_fd_pr__nfet_01v8_lvt ad=0p pd=0u as=0p ps=0u w=3e+06u l=350000u
X4 vdd.t142 vbias.t22 vbias.t23 vdd sky130_fd_pr__pfet_01v8_lvt ad=0p pd=0u as=0p ps=0u w=4e+06u l=2e+06u
X5 vout.t47 a_n6538_n5814.t19 vss.t81 vss sky130_fd_pr__nfet_01v8_lvt ad=0p pd=0u as=0p ps=0u w=3e+06u l=350000u
X6 vout a_4367_n15411# sky130_fd_pr__cap_mim_m3_1 l=1.35e+07u w=1.35e+07u
X7 vss.t86 a_n2720_n15566.t14 a_n2720_n15566.t15 vss sky130_fd_pr__nfet_01v8_lvt ad=0p pd=0u as=0p ps=0u w=3e+06u l=350000u
X8 vdd.t141 vbias.t25 vout.t13 vdd sky130_fd_pr__pfet_01v8_lvt ad=0p pd=0u as=0p ps=0u w=4e+06u l=2e+06u
X9 vout.t189 vbias.t26 vdd.t140 vdd sky130_fd_pr__pfet_01v8_lvt ad=0p pd=0u as=0p ps=0u w=4e+06u l=2e+06u
X10 vss.t80 a_n6538_n5814.t20 vout.t70 vss sky130_fd_pr__nfet_01v8_lvt ad=0p pd=0u as=0p ps=0u w=3e+06u l=350000u
X11 vout.t178 vbias.t27 vdd.t139 vdd sky130_fd_pr__pfet_01v8_lvt ad=0p pd=0u as=0p ps=0u w=4e+06u l=2e+06u
X12 vss.t79 a_n6538_n5814.t21 vout.t112 vss sky130_fd_pr__nfet_01v8_lvt ad=0p pd=0u as=0p ps=0u w=3e+06u l=350000u
X13 vout.t184 vbias.t28 vdd.t138 vdd sky130_fd_pr__pfet_01v8_lvt ad=0p pd=0u as=0p ps=0u w=4e+06u l=2e+06u
X14 vout.t3 vbias.t29 vdd.t137 vdd sky130_fd_pr__pfet_01v8_lvt ad=0p pd=0u as=0p ps=0u w=4e+06u l=2e+06u
X15 a_n2720_n15566.t13 a_n2720_n15566.t12 vss.t2 vss sky130_fd_pr__nfet_01v8_lvt ad=0p pd=0u as=0p ps=0u w=3e+06u l=350000u
X16 a_n6538_n5814.t12 vp.t1 a_n3094_n11100.t10 vdd sky130_fd_pr__pfet_01v8_lvt ad=0p pd=0u as=0p ps=0u w=4e+06u l=350000u
X17 vss.t78 a_n6538_n5814.t22 vout.t82 vss sky130_fd_pr__nfet_01v8_lvt ad=0p pd=0u as=0p ps=0u w=3e+06u l=350000u
X18 vout.t38 vbias.t30 vdd.t136 vdd sky130_fd_pr__pfet_01v8_lvt ad=0p pd=0u as=0p ps=0u w=4e+06u l=2e+06u
X19 vout.t43 vbias.t31 vdd.t135 vdd sky130_fd_pr__pfet_01v8_lvt ad=0p pd=0u as=0p ps=0u w=4e+06u l=2e+06u
X20 vdd.t134 vbias.t32 vout.t183 vdd sky130_fd_pr__pfet_01v8_lvt ad=0p pd=0u as=0p ps=0u w=4e+06u l=2e+06u
X21 vout.t0 vbias.t33 vdd.t133 vdd sky130_fd_pr__pfet_01v8_lvt ad=0p pd=0u as=0p ps=0u w=4e+06u l=2e+06u
X22 vdd.t132 vbias.t34 vout.t188 vdd sky130_fd_pr__pfet_01v8_lvt ad=0p pd=0u as=0p ps=0u w=4e+06u l=2e+06u
X23 vdd.t131 vbias.t35 vout.t2 vdd sky130_fd_pr__pfet_01v8_lvt ad=0p pd=0u as=0p ps=0u w=4e+06u l=2e+06u
X24 vdd.t130 vbias.t36 vout.t187 vdd sky130_fd_pr__pfet_01v8_lvt ad=0p pd=0u as=0p ps=0u w=4e+06u l=2e+06u
X25 vout.t1 vbias.t37 vdd.t129 vdd sky130_fd_pr__pfet_01v8_lvt ad=0p pd=0u as=0p ps=0u w=4e+06u l=2e+06u
X26 vss.t77 a_n6538_n5814.t23 vout.t108 vss sky130_fd_pr__nfet_01v8_lvt ad=0p pd=0u as=0p ps=0u w=3e+06u l=350000u
X27 vss.t76 a_n6538_n5814.t24 vout.t64 vss sky130_fd_pr__nfet_01v8_lvt ad=0p pd=0u as=0p ps=0u w=3e+06u l=350000u
X28 vdd.t128 vbias.t38 vout.t157 vdd sky130_fd_pr__pfet_01v8_lvt ad=0p pd=0u as=0p ps=0u w=4e+06u l=2e+06u
X29 vout.t45 vbias.t39 vdd.t127 vdd sky130_fd_pr__pfet_01v8_lvt ad=0p pd=0u as=0p ps=0u w=4e+06u l=2e+06u
X30 vout.t166 vbias.t40 vdd.t126 vdd sky130_fd_pr__pfet_01v8_lvt ad=0p pd=0u as=0p ps=0u w=4e+06u l=2e+06u
X31 vdd.t125 vbias.t41 vout.t167 vdd sky130_fd_pr__pfet_01v8_lvt ad=0p pd=0u as=0p ps=0u w=4e+06u l=2e+06u
X32 vdd.t124 vbias.t42 vout.t168 vdd sky130_fd_pr__pfet_01v8_lvt ad=0p pd=0u as=0p ps=0u w=4e+06u l=2e+06u
X33 vss.t75 a_n6538_n5814.t25 vout.t90 vss sky130_fd_pr__nfet_01v8_lvt ad=0p pd=0u as=0p ps=0u w=3e+06u l=350000u
X34 vss.t74 a_n6538_n5814.t26 vout.t115 vss sky130_fd_pr__nfet_01v8_lvt ad=0p pd=0u as=0p ps=0u w=3e+06u l=350000u
X35 vout.t169 vbias.t43 vdd.t123 vdd sky130_fd_pr__pfet_01v8_lvt ad=0p pd=0u as=0p ps=0u w=4e+06u l=2e+06u
X36 vdd.t122 vbias.t44 vout.t130 vdd sky130_fd_pr__pfet_01v8_lvt ad=0p pd=0u as=0p ps=0u w=4e+06u l=2e+06u
X37 vout.t131 vbias.t45 vdd.t121 vdd sky130_fd_pr__pfet_01v8_lvt ad=0p pd=0u as=0p ps=0u w=4e+06u l=2e+06u
X38 a_n6538_n5814.t14 a_n2720_n15566.t20 vss.t87 vss sky130_fd_pr__nfet_01v8_lvt ad=0p pd=0u as=0p ps=0u w=3e+06u l=350000u
X39 a_n3094_n11100.t13 vn.t0 a_n2720_n15566.t1 vdd sky130_fd_pr__pfet_01v8_lvt ad=0p pd=0u as=0p ps=0u w=4e+06u l=350000u
X40 vss.t73 a_n6538_n5814.t27 vout.t48 vss sky130_fd_pr__nfet_01v8_lvt ad=0p pd=0u as=0p ps=0u w=3e+06u l=350000u
X41 vout.t181 vbias.t46 vdd.t120 vdd sky130_fd_pr__pfet_01v8_lvt ad=0p pd=0u as=0p ps=0u w=4e+06u l=2e+06u
X42 vss.t84 a_n2720_n15566.t21 a_n6538_n5814.t9 vss sky130_fd_pr__nfet_01v8_lvt ad=0p pd=0u as=0p ps=0u w=3e+06u l=350000u
X43 a_n3094_n11100.t9 vp.t2 a_n6538_n5814.t0 vdd sky130_fd_pr__pfet_01v8_lvt ad=0p pd=0u as=0p ps=0u w=4e+06u l=350000u
X44 vdd.t119 vbias.t47 vout.t182 vdd sky130_fd_pr__pfet_01v8_lvt ad=0p pd=0u as=0p ps=0u w=4e+06u l=2e+06u

X46 vout.t87 a_n6538_n5814.t28 vss.t72 vss sky130_fd_pr__nfet_01v8_lvt ad=0p pd=0u as=0p ps=0u w=3e+06u l=350000u
X47 vdd.t118 vbias.t48 vout.t27 vdd sky130_fd_pr__pfet_01v8_lvt ad=0p pd=0u as=0p ps=0u w=4e+06u l=2e+06u
X48 vout.t71 a_n6538_n5814.t29 vss.t71 vss sky130_fd_pr__nfet_01v8_lvt ad=0p pd=0u as=0p ps=0u w=3e+06u l=350000u
X49 vss.t70 a_n6538_n5814.t30 vout.t61 vss sky130_fd_pr__nfet_01v8_lvt ad=0p pd=0u as=0p ps=0u w=3e+06u l=350000u
X50 vout.t54 a_n6538_n5814.t31 vss.t69 vss sky130_fd_pr__nfet_01v8_lvt ad=0p pd=0u as=0p ps=0u w=3e+06u l=350000u
X51 vdd.t117 vbias.t49 vout.t28 vdd sky130_fd_pr__pfet_01v8_lvt ad=0p pd=0u as=0p ps=0u w=4e+06u l=2e+06u
X52 a_n2720_n15566.t3 vn.t1 a_n3094_n11100.t15 vdd sky130_fd_pr__pfet_01v8_lvt ad=0p pd=0u as=0p ps=0u w=4e+06u l=350000u
X53 vout.t126 vbias.t50 vdd.t116 vdd sky130_fd_pr__pfet_01v8_lvt ad=0p pd=0u as=0p ps=0u w=4e+06u l=2e+06u
X54 a_n2720_n15566.t18 vn.t2 a_n3094_n11100.t34 vdd sky130_fd_pr__pfet_01v8_lvt ad=0p pd=0u as=0p ps=0u w=4e+06u l=350000u
X55 a_n6538_n5814.t10 vp.t3 a_n3094_n11100.t8 vdd sky130_fd_pr__pfet_01v8_lvt ad=0p pd=0u as=0p ps=0u w=4e+06u l=350000u
X56 vdd.t115 vbias.t51 vout.t127 vdd sky130_fd_pr__pfet_01v8_lvt ad=0p pd=0u as=0p ps=0u w=4e+06u l=2e+06u
X57 vdd.t114 vbias.t52 vout.t31 vdd sky130_fd_pr__pfet_01v8_lvt ad=0p pd=0u as=0p ps=0u w=4e+06u l=2e+06u
X58 vdd.t113 vbias.t53 vout.t32 vdd sky130_fd_pr__pfet_01v8_lvt ad=0p pd=0u as=0p ps=0u w=4e+06u l=2e+06u
X59 vout.t145 vbias.t54 vdd.t112 vdd sky130_fd_pr__pfet_01v8_lvt ad=0p pd=0u as=0p ps=0u w=4e+06u l=2e+06u
X60 vout.t117 a_n6538_n5814.t32 vss.t68 vss sky130_fd_pr__nfet_01v8_lvt ad=0p pd=0u as=0p ps=0u w=3e+06u l=350000u
X61 vout.t146 vbias.t55 vdd.t111 vdd sky130_fd_pr__pfet_01v8_lvt ad=0p pd=0u as=0p ps=0u w=4e+06u l=2e+06u
X62 vss.t67 a_n6538_n5814.t33 vout.t50 vss sky130_fd_pr__nfet_01v8_lvt ad=0p pd=0u as=0p ps=0u w=3e+06u l=350000u
X63 vout.t149 vbias.t56 vdd.t110 vdd sky130_fd_pr__pfet_01v8_lvt ad=0p pd=0u as=0p ps=0u w=4e+06u l=2e+06u
X64 vdd.t109 vbias.t57 vout.t150 vdd sky130_fd_pr__pfet_01v8_lvt ad=0p pd=0u as=0p ps=0u w=4e+06u l=2e+06u
X65 vdd.t108 vbias.t58 vout.t160 vdd sky130_fd_pr__pfet_01v8_lvt ad=0p pd=0u as=0p ps=0u w=4e+06u l=2e+06u
X66 vdd.t107 vbias.t59 vout.t161 vdd sky130_fd_pr__pfet_01v8_lvt ad=0p pd=0u as=0p ps=0u w=4e+06u l=2e+06u
X67 vout.t147 vbias.t60 vdd.t106 vdd sky130_fd_pr__pfet_01v8_lvt ad=0p pd=0u as=0p ps=0u w=4e+06u l=2e+06u
X68 vdd.t105 vbias.t61 vout.t148 vdd sky130_fd_pr__pfet_01v8_lvt ad=0p pd=0u as=0p ps=0u w=4e+06u l=2e+06u
X69 a_n3094_n11100.t31 vn.t3 a_n2720_n15566.t7 vdd sky130_fd_pr__pfet_01v8_lvt ad=0p pd=0u as=0p ps=0u w=4e+06u l=350000u
X70 vout.t128 vbias.t62 vdd.t104 vdd sky130_fd_pr__pfet_01v8_lvt ad=0p pd=0u as=0p ps=0u w=4e+06u l=2e+06u
X71 vdd.t103 vbias.t63 vout.t129 vdd sky130_fd_pr__pfet_01v8_lvt ad=0p pd=0u as=0p ps=0u w=4e+06u l=2e+06u
X72 vout.t93 a_n6538_n5814.t34 vss.t66 vss sky130_fd_pr__nfet_01v8_lvt ad=0p pd=0u as=0p ps=0u w=3e+06u l=350000u
X73 vout.t23 vbias.t64 vdd.t102 vdd sky130_fd_pr__pfet_01v8_lvt ad=0p pd=0u as=0p ps=0u w=4e+06u l=2e+06u
X74 vss.t65 a_n6538_n5814.t35 vout.t113 vss sky130_fd_pr__nfet_01v8_lvt ad=0p pd=0u as=0p ps=0u w=3e+06u l=350000u
X75 vdd.t101 vbias.t65 vout.t24 vdd sky130_fd_pr__pfet_01v8_lvt ad=0p pd=0u as=0p ps=0u w=4e+06u l=2e+06u
X76 vdd.t100 vbias.t66 vout.t143 vdd sky130_fd_pr__pfet_01v8_lvt ad=0p pd=0u as=0p ps=0u w=4e+06u l=2e+06u
X77 vout.t86 a_n6538_n5814.t36 vss.t64 vss sky130_fd_pr__nfet_01v8_lvt ad=0p pd=0u as=0p ps=0u w=3e+06u l=350000u
X78 vout.t144 vbias.t67 vdd.t99 vdd sky130_fd_pr__pfet_01v8_lvt ad=0p pd=0u as=0p ps=0u w=4e+06u l=2e+06u
X79 vout.t170 vbias.t68 vdd.t98 vdd sky130_fd_pr__pfet_01v8_lvt ad=0p pd=0u as=0p ps=0u w=4e+06u l=2e+06u
X80 vout.t59 a_n6538_n5814.t37 vss.t63 vss sky130_fd_pr__nfet_01v8_lvt ad=0p pd=0u as=0p ps=0u w=3e+06u l=350000u
X81 vdd.t97 vbias.t69 vout.t171 vdd sky130_fd_pr__pfet_01v8_lvt ad=0p pd=0u as=0p ps=0u w=4e+06u l=2e+06u
X82 vout.t122 a_n6538_n5814.t38 vss.t62 vss sky130_fd_pr__nfet_01v8_lvt ad=0p pd=0u as=0p ps=0u w=3e+06u l=350000u
X83 a_n3094_n11100.t7 vp.t4 a_n6538_n5814.t8 vdd sky130_fd_pr__pfet_01v8_lvt ad=0p pd=0u as=0p ps=0u w=4e+06u l=350000u
X84 vss.t61 a_n6538_n5814.t39 vout.t72 vss sky130_fd_pr__nfet_01v8_lvt ad=0p pd=0u as=0p ps=0u w=3e+06u l=350000u
X85 vout.t141 vbias.t70 vdd.t96 vdd sky130_fd_pr__pfet_01v8_lvt ad=0p pd=0u as=0p ps=0u w=4e+06u l=2e+06u
X86 vout.t96 a_n6538_n5814.t40 vss.t60 vss sky130_fd_pr__nfet_01v8_lvt ad=0p pd=0u as=0p ps=0u w=3e+06u l=350000u
X87 vout.t142 vbias.t71 vdd.t95 vdd sky130_fd_pr__pfet_01v8_lvt ad=0p pd=0u as=0p ps=0u w=4e+06u l=2e+06u
X88 vout.t25 vbias.t72 vdd.t94 vdd sky130_fd_pr__pfet_01v8_lvt ad=0p pd=0u as=0p ps=0u w=4e+06u l=2e+06u
X89 vout.t119 a_n6538_n5814.t41 vss.t59 vss sky130_fd_pr__nfet_01v8_lvt ad=0p pd=0u as=0p ps=0u w=3e+06u l=350000u
X90 vdd.t93 vbias.t73 vout.t26 vdd sky130_fd_pr__pfet_01v8_lvt ad=0p pd=0u as=0p ps=0u w=4e+06u l=2e+06u
X91 vout.t198 vbias.t74 vdd.t92 vdd sky130_fd_pr__pfet_01v8_lvt ad=0p pd=0u as=0p ps=0u w=4e+06u l=2e+06u
X92 vout.t199 vbias.t75 vdd.t91 vdd sky130_fd_pr__pfet_01v8_lvt ad=0p pd=0u as=0p ps=0u w=4e+06u l=2e+06u
X93 vss.t58 a_n6538_n5814.t42 vout.t73 vss sky130_fd_pr__nfet_01v8_lvt ad=0p pd=0u as=0p ps=0u w=3e+06u l=350000u
X94 vout.t58 a_n6538_n5814.t43 vss.t57 vss sky130_fd_pr__nfet_01v8_lvt ad=0p pd=0u as=0p ps=0u w=3e+06u l=350000u
X95 vout.t190 vbias.t76 vdd.t90 vdd sky130_fd_pr__pfet_01v8_lvt ad=0p pd=0u as=0p ps=0u w=4e+06u l=2e+06u
X96 vss.t56 a_n6538_n5814.t44 vout.t111 vss sky130_fd_pr__nfet_01v8_lvt ad=0p pd=0u as=0p ps=0u w=3e+06u l=350000u
X97 vout.t191 vbias.t77 vdd.t89 vdd sky130_fd_pr__pfet_01v8_lvt ad=0p pd=0u as=0p ps=0u w=4e+06u l=2e+06u
X98 vout.t8 vbias.t78 vdd.t88 vdd sky130_fd_pr__pfet_01v8_lvt ad=0p pd=0u as=0p ps=0u w=4e+06u l=2e+06u
X99 vdd.t87 vbias.t79 vout.t9 vdd sky130_fd_pr__pfet_01v8_lvt ad=0p pd=0u as=0p ps=0u w=4e+06u l=2e+06u
X100 vout.t16 vbias.t80 vdd.t86 vdd sky130_fd_pr__pfet_01v8_lvt ad=0p pd=0u as=0p ps=0u w=4e+06u l=2e+06u
X101 vout.t46 a_n6538_n5814.t45 vss.t55 vss sky130_fd_pr__nfet_01v8_lvt ad=0p pd=0u as=0p ps=0u w=3e+06u l=350000u
X102 vout.t49 a_n6538_n5814.t46 vss.t54 vss sky130_fd_pr__nfet_01v8_lvt ad=0p pd=0u as=0p ps=0u w=3e+06u l=350000u
X103 a_n6538_n5814.t16 vp.t5 a_n3094_n11100.t6 vdd sky130_fd_pr__pfet_01v8_lvt ad=0p pd=0u as=0p ps=0u w=4e+06u l=350000u
X104 vss.t53 a_n6538_n5814.t47 vout.t63 vss sky130_fd_pr__nfet_01v8_lvt ad=0p pd=0u as=0p ps=0u w=3e+06u l=350000u
X105 vout.t124 a_n6538_n5814.t48 vss.t52 vss sky130_fd_pr__nfet_01v8_lvt ad=0p pd=0u as=0p ps=0u w=3e+06u l=350000u
X106 vout.t17 vbias.t81 vdd.t85 vdd sky130_fd_pr__pfet_01v8_lvt ad=0p pd=0u as=0p ps=0u w=4e+06u l=2e+06u
X107 vout.t155 vbias.t82 vdd.t84 vdd sky130_fd_pr__pfet_01v8_lvt ad=0p pd=0u as=0p ps=0u w=4e+06u l=2e+06u
X108 vss.t51 a_n6538_n5814.t49 vout.t103 vss sky130_fd_pr__nfet_01v8_lvt ad=0p pd=0u as=0p ps=0u w=3e+06u l=350000u
X109 vout.t156 vbias.t83 vdd.t83 vdd sky130_fd_pr__pfet_01v8_lvt ad=0p pd=0u as=0p ps=0u w=4e+06u l=2e+06u
X110 vdd.t82 vbias.t84 vout.t192 vdd sky130_fd_pr__pfet_01v8_lvt ad=0p pd=0u as=0p ps=0u w=4e+06u l=2e+06u
X111 vout.t80 a_n6538_n5814.t50 vss.t50 vss sky130_fd_pr__nfet_01v8_lvt ad=0p pd=0u as=0p ps=0u w=3e+06u l=350000u
X112 vdd.t81 vbias.t85 vout.t193 vdd sky130_fd_pr__pfet_01v8_lvt ad=0p pd=0u as=0p ps=0u w=4e+06u l=2e+06u
X113 vdd.t80 vbias.t86 vout.t158 vdd sky130_fd_pr__pfet_01v8_lvt ad=0p pd=0u as=0p ps=0u w=4e+06u l=2e+06u
X114 vss.t49 a_n6538_n5814.t51 vout.t92 vss sky130_fd_pr__nfet_01v8_lvt ad=0p pd=0u as=0p ps=0u w=3e+06u l=350000u
X115 vout.t53 a_n6538_n5814.t52 vss.t48 vss sky130_fd_pr__nfet_01v8_lvt ad=0p pd=0u as=0p ps=0u w=3e+06u l=350000u
X116 vdd.t79 vbias.t87 vout.t159 vdd sky130_fd_pr__pfet_01v8_lvt ad=0p pd=0u as=0p ps=0u w=4e+06u l=2e+06u
X117 a_n3094_n11100.t33 vn.t4 a_n2720_n15566.t17 vdd sky130_fd_pr__pfet_01v8_lvt ad=0p pd=0u as=0p ps=0u w=4e+06u l=350000u
X118 vdd.t78 vbias.t88 vout.t29 vdd sky130_fd_pr__pfet_01v8_lvt ad=0p pd=0u as=0p ps=0u w=4e+06u l=2e+06u
X119 vout.t51 a_n6538_n5814.t53 vss.t47 vss sky130_fd_pr__nfet_01v8_lvt ad=0p pd=0u as=0p ps=0u w=3e+06u l=350000u
X120 a_n3094_n11100.t5 vp.t6 a_n6538_n5814.t13 vdd sky130_fd_pr__pfet_01v8_lvt ad=0p pd=0u as=0p ps=0u w=4e+06u l=350000u
X121 vss.t46 a_n6538_n5814.t54 vout.t116 vss sky130_fd_pr__nfet_01v8_lvt ad=0p pd=0u as=0p ps=0u w=3e+06u l=350000u
X122 a_n2720_n15566.t5 vn.t5 a_n3094_n11100.t29 vdd sky130_fd_pr__pfet_01v8_lvt ad=0p pd=0u as=0p ps=0u w=4e+06u l=350000u
X123 vout.t30 vbias.t89 vdd.t77 vdd sky130_fd_pr__pfet_01v8_lvt ad=0p pd=0u as=0p ps=0u w=4e+06u l=2e+06u
X124 a_n6538_n5814.t5 vp.t7 a_n3094_n11100.t4 vdd sky130_fd_pr__pfet_01v8_lvt ad=0p pd=0u as=0p ps=0u w=4e+06u l=350000u
X125 vdd.t76 vbias.t90 vout.t36 vdd sky130_fd_pr__pfet_01v8_lvt ad=0p pd=0u as=0p ps=0u w=4e+06u l=2e+06u
X126 vout.t121 a_n6538_n5814.t55 vss.t45 vss sky130_fd_pr__nfet_01v8_lvt ad=0p pd=0u as=0p ps=0u w=3e+06u l=350000u
X127 vdd.t75 vbias.t20 vbias.t21 vdd sky130_fd_pr__pfet_01v8_lvt ad=0p pd=0u as=0p ps=0u w=4e+06u l=2e+06u
X128 vdd.t74 vbias.t91 vout.t37 vdd sky130_fd_pr__pfet_01v8_lvt ad=0p pd=0u as=0p ps=0u w=4e+06u l=2e+06u
X129 vss.t44 a_n6538_n5814.t56 vout.t69 vss sky130_fd_pr__nfet_01v8_lvt ad=0p pd=0u as=0p ps=0u w=3e+06u l=350000u
X130 vout.t39 vbias.t92 vdd.t73 vdd sky130_fd_pr__pfet_01v8_lvt ad=0p pd=0u as=0p ps=0u w=4e+06u l=2e+06u
X131 vss.t43 a_n6538_n5814.t57 vout.t125 vss sky130_fd_pr__nfet_01v8_lvt ad=0p pd=0u as=0p ps=0u w=3e+06u l=350000u
X132 vdd.t72 vbias.t93 vout.t40 vdd sky130_fd_pr__pfet_01v8_lvt ad=0p pd=0u as=0p ps=0u w=4e+06u l=2e+06u
X133 vbias.t5 vbias.t4 vdd.t71 vdd sky130_fd_pr__pfet_01v8_lvt ad=0p pd=0u as=0p ps=0u w=4e+06u l=2e+06u
X134 vout.t66 a_n6538_n5814.t58 vss.t42 vss sky130_fd_pr__nfet_01v8_lvt ad=0p pd=0u as=0p ps=0u w=3e+06u l=350000u
X135 a_n2720_n15566.t6 vn.t6 a_n3094_n11100.t30 vdd sky130_fd_pr__pfet_01v8_lvt ad=0p pd=0u as=0p ps=0u w=4e+06u l=350000u
X136 vout.t139 vbias.t94 vdd.t70 vdd sky130_fd_pr__pfet_01v8_lvt ad=0p pd=0u as=0p ps=0u w=4e+06u l=2e+06u
X137 vss.t41 a_n6538_n5814.t59 vout.t85 vss sky130_fd_pr__nfet_01v8_lvt ad=0p pd=0u as=0p ps=0u w=3e+06u l=350000u
X138 vdd.t69 vbias.t95 vout.t140 vdd sky130_fd_pr__pfet_01v8_lvt ad=0p pd=0u as=0p ps=0u w=4e+06u l=2e+06u
X139 vss.t1 a_n2720_n15566.t22 a_n6538_n5814.t2 vss sky130_fd_pr__nfet_01v8_lvt ad=0p pd=0u as=0p ps=0u w=3e+06u l=350000u
X140 a_n3094_n11100.t27 vbias.t96 vdd.t68 vdd sky130_fd_pr__pfet_01v8_lvt ad=0p pd=0u as=0p ps=0u w=4e+06u l=2e+06u
X141 vss.t40 a_n6538_n5814.t60 vout.t57 vss sky130_fd_pr__nfet_01v8_lvt ad=0p pd=0u as=0p ps=0u w=3e+06u l=350000u
X142 vout.t172 vbias.t97 vdd.t67 vdd sky130_fd_pr__pfet_01v8_lvt ad=0p pd=0u as=0p ps=0u w=4e+06u l=2e+06u
X143 vbias.t9 vbias.t8 vdd.t66 vdd sky130_fd_pr__pfet_01v8_lvt ad=0p pd=0u as=0p ps=0u w=4e+06u l=2e+06u
X144 vout.t60 a_n6538_n5814.t61 vss.t39 vss sky130_fd_pr__nfet_01v8_lvt ad=0p pd=0u as=0p ps=0u w=3e+06u l=350000u
X145 vout.t68 a_n6538_n5814.t62 vss.t38 vss sky130_fd_pr__nfet_01v8_lvt ad=0p pd=0u as=0p ps=0u w=3e+06u l=350000u
X146 vout.t132 vbias.t98 vdd.t65 vdd sky130_fd_pr__pfet_01v8_lvt ad=0p pd=0u as=0p ps=0u w=4e+06u l=2e+06u
X147 vss.t37 a_n6538_n5814.t63 vout.t95 vss sky130_fd_pr__nfet_01v8_lvt ad=0p pd=0u as=0p ps=0u w=3e+06u l=350000u
X148 vout.t89 a_n6538_n5814.t64 vss.t36 vss sky130_fd_pr__nfet_01v8_lvt ad=0p pd=0u as=0p ps=0u w=3e+06u l=350000u
X149 vss.t35 a_n6538_n5814.t65 vout.t67 vss sky130_fd_pr__nfet_01v8_lvt ad=0p pd=0u as=0p ps=0u w=3e+06u l=350000u
X150 vdd.t64 vbias.t99 vout.t133 vdd sky130_fd_pr__pfet_01v8_lvt ad=0p pd=0u as=0p ps=0u w=4e+06u l=2e+06u
X151 vout.t154 vbias.t100 vdd.t63 vdd sky130_fd_pr__pfet_01v8_lvt ad=0p pd=0u as=0p ps=0u w=4e+06u l=2e+06u
X152 a_n3094_n11100.t35 vn.t7 a_n2720_n15566.t19 vdd sky130_fd_pr__pfet_01v8_lvt ad=0p pd=0u as=0p ps=0u w=4e+06u l=350000u
X153 a_n3094_n11100.t26 vbias.t101 vdd.t62 vdd sky130_fd_pr__pfet_01v8_lvt ad=0p pd=0u as=0p ps=0u w=4e+06u l=2e+06u
X154 vdd.t61 vbias.t102 vout.t34 vdd sky130_fd_pr__pfet_01v8_lvt ad=0p pd=0u as=0p ps=0u w=4e+06u l=2e+06u
X155 vss.t34 a_n6538_n5814.t66 vout.t55 vss sky130_fd_pr__nfet_01v8_lvt ad=0p pd=0u as=0p ps=0u w=3e+06u l=350000u
X156 vout.t35 vbias.t103 vdd.t60 vdd sky130_fd_pr__pfet_01v8_lvt ad=0p pd=0u as=0p ps=0u w=4e+06u l=2e+06u
X157 vdd.t59 vbias.t104 vout.t152 vdd sky130_fd_pr__pfet_01v8_lvt ad=0p pd=0u as=0p ps=0u w=4e+06u l=2e+06u
X158 vss.t33 a_n6538_n5814.t67 vout.t74 vss sky130_fd_pr__nfet_01v8_lvt ad=0p pd=0u as=0p ps=0u w=3e+06u l=350000u
X159 vdd.t58 vbias.t105 vout.t153 vdd sky130_fd_pr__pfet_01v8_lvt ad=0p pd=0u as=0p ps=0u w=4e+06u l=2e+06u
X160 vss.t0 a_n2720_n15566.t10 a_n2720_n15566.t11 vss sky130_fd_pr__nfet_01v8_lvt ad=0p pd=0u as=0p ps=0u w=3e+06u l=350000u
X161 vout.t196 vbias.t106 vdd.t57 vdd sky130_fd_pr__pfet_01v8_lvt ad=0p pd=0u as=0p ps=0u w=4e+06u l=2e+06u
X162 vss.t32 a_n6538_n5814.t68 vout.t83 vss sky130_fd_pr__nfet_01v8_lvt ad=0p pd=0u as=0p ps=0u w=3e+06u l=350000u
X163 a_n2720_n15566.t9 a_n2720_n15566.t8 vss.t85 vss sky130_fd_pr__nfet_01v8_lvt ad=0p pd=0u as=0p ps=0u w=3e+06u l=350000u
X164 vdd.t56 vbias.t16 vbias.t17 vdd sky130_fd_pr__pfet_01v8_lvt ad=0p pd=0u as=0p ps=0u w=4e+06u l=2e+06u
X165 a_n3094_n11100.t3 vp.t8 a_n6538_n5814.t4 vdd sky130_fd_pr__pfet_01v8_lvt ad=0p pd=0u as=0p ps=0u w=4e+06u l=350000u
X166 vbias.t19 vbias.t18 vdd.t55 vdd sky130_fd_pr__pfet_01v8_lvt ad=0p pd=0u as=0p ps=0u w=4e+06u l=2e+06u
X167 vdd.t54 vbias.t107 vout.t197 vdd sky130_fd_pr__pfet_01v8_lvt ad=0p pd=0u as=0p ps=0u w=4e+06u l=2e+06u
X168 vout.t151 vbias.t108 vdd.t53 vdd sky130_fd_pr__pfet_01v8_lvt ad=0p pd=0u as=0p ps=0u w=4e+06u l=2e+06u
X169 vss.t31 a_n6538_n5814.t69 vout.t81 vss sky130_fd_pr__nfet_01v8_lvt ad=0p pd=0u as=0p ps=0u w=3e+06u l=350000u
X170 vdd.t52 vbias.t109 a_n3094_n11100.t25 vdd sky130_fd_pr__pfet_01v8_lvt ad=0p pd=0u as=0p ps=0u w=4e+06u l=2e+06u
X171 vdd.t51 vbias.t10 vbias.t11 vdd sky130_fd_pr__pfet_01v8_lvt ad=0p pd=0u as=0p ps=0u w=4e+06u l=2e+06u
X172 vbias.t13 vbias.t12 vdd.t50 vdd sky130_fd_pr__pfet_01v8_lvt ad=0p pd=0u as=0p ps=0u w=4e+06u l=2e+06u
X173 vdd.t49 vbias.t110 a_n3094_n11100.t24 vdd sky130_fd_pr__pfet_01v8_lvt ad=0p pd=0u as=0p ps=0u w=4e+06u l=2e+06u
X174 vbias.t1 vbias.t0 vdd.t48 vdd sky130_fd_pr__pfet_01v8_lvt ad=0p pd=0u as=0p ps=0u w=4e+06u l=2e+06u
X175 vout.t5 vbias.t111 vdd.t47 vdd sky130_fd_pr__pfet_01v8_lvt ad=0p pd=0u as=0p ps=0u w=4e+06u l=2e+06u
X176 vbias.t7 vbias.t6 vdd.t46 vdd sky130_fd_pr__pfet_01v8_lvt ad=0p pd=0u as=0p ps=0u w=4e+06u l=2e+06u
X177 vout.t101 a_n6538_n5814.t70 vss.t30 vss sky130_fd_pr__nfet_01v8_lvt ad=0p pd=0u as=0p ps=0u w=3e+06u l=350000u
X178 vss.t29 a_n6538_n5814.t71 vout.t94 vss sky130_fd_pr__nfet_01v8_lvt ad=0p pd=0u as=0p ps=0u w=3e+06u l=350000u
X179 a_n6538_n5814.t6 a_n2720_n15566.t23 vss.t3 vss sky130_fd_pr__nfet_01v8_lvt ad=0p pd=0u as=0p ps=0u w=3e+06u l=350000u
X180 vss.t28 a_n6538_n5814.t72 vout.t98 vss sky130_fd_pr__nfet_01v8_lvt ad=0p pd=0u as=0p ps=0u w=3e+06u l=350000u
X181 vdd.t45 vbias.t112 a_n3094_n11100.t23 vdd sky130_fd_pr__pfet_01v8_lvt ad=0p pd=0u as=0p ps=0u w=4e+06u l=2e+06u
X182 vdd.t44 vbias.t113 vout.t33 vdd sky130_fd_pr__pfet_01v8_lvt ad=0p pd=0u as=0p ps=0u w=4e+06u l=2e+06u
X183 vout.t21 vbias.t114 vdd.t43 vdd sky130_fd_pr__pfet_01v8_lvt ad=0p pd=0u as=0p ps=0u w=4e+06u l=2e+06u
X184 a_n6538_n5814.t3 vp.t9 a_n3094_n11100.t2 vdd sky130_fd_pr__pfet_01v8_lvt ad=0p pd=0u as=0p ps=0u w=4e+06u l=350000u
X185 vout.t56 a_n6538_n5814.t73 vss.t27 vss sky130_fd_pr__nfet_01v8_lvt ad=0p pd=0u as=0p ps=0u w=3e+06u l=350000u
X186 vout.t22 vbias.t115 vdd.t42 vdd sky130_fd_pr__pfet_01v8_lvt ad=0p pd=0u as=0p ps=0u w=4e+06u l=2e+06u
X187 vout.t99 a_n6538_n5814.t74 vss.t26 vss sky130_fd_pr__nfet_01v8_lvt ad=0p pd=0u as=0p ps=0u w=3e+06u l=350000u
X188 vout.t194 vbias.t116 vdd.t41 vdd sky130_fd_pr__pfet_01v8_lvt ad=0p pd=0u as=0p ps=0u w=4e+06u l=2e+06u
X189 vdd.t40 vbias.t117 vout.t195 vdd sky130_fd_pr__pfet_01v8_lvt ad=0p pd=0u as=0p ps=0u w=4e+06u l=2e+06u
X190 vout.t79 a_n6538_n5814.t75 vss.t25 vss sky130_fd_pr__nfet_01v8_lvt ad=0p pd=0u as=0p ps=0u w=3e+06u l=350000u
X191 a_n3094_n11100.t28 vn.t8 a_n2720_n15566.t4 vdd sky130_fd_pr__pfet_01v8_lvt ad=0p pd=0u as=0p ps=0u w=4e+06u l=350000u
X192 vdd.t39 vbias.t118 vout.t6 vdd sky130_fd_pr__pfet_01v8_lvt ad=0p pd=0u as=0p ps=0u w=4e+06u l=2e+06u
X193 vout.t7 vbias.t119 vdd.t38 vdd sky130_fd_pr__pfet_01v8_lvt ad=0p pd=0u as=0p ps=0u w=4e+06u l=2e+06u
X194 a_n3094_n11100.t1 vp.t10 a_n6538_n5814.t11 vdd sky130_fd_pr__pfet_01v8_lvt ad=0p pd=0u as=0p ps=0u w=4e+06u l=350000u
X195 vdd.t37 vbias.t120 vout.t19 vdd sky130_fd_pr__pfet_01v8_lvt ad=0p pd=0u as=0p ps=0u w=4e+06u l=2e+06u
X196 vout.t20 vbias.t121 vdd.t36 vdd sky130_fd_pr__pfet_01v8_lvt ad=0p pd=0u as=0p ps=0u w=4e+06u l=2e+06u
X197 vout.t137 vbias.t122 vdd.t35 vdd sky130_fd_pr__pfet_01v8_lvt ad=0p pd=0u as=0p ps=0u w=4e+06u l=2e+06u
X198 vdd.t34 vbias.t123 vout.t138 vdd sky130_fd_pr__pfet_01v8_lvt ad=0p pd=0u as=0p ps=0u w=4e+06u l=2e+06u
X199 vdd.t33 vbias.t124 vout.t179 vdd sky130_fd_pr__pfet_01v8_lvt ad=0p pd=0u as=0p ps=0u w=4e+06u l=2e+06u
X200 vout.t75 a_n6538_n5814.t76 vss.t24 vss sky130_fd_pr__nfet_01v8_lvt ad=0p pd=0u as=0p ps=0u w=3e+06u l=350000u
X201 vout.t123 a_n6538_n5814.t77 vss.t23 vss sky130_fd_pr__nfet_01v8_lvt ad=0p pd=0u as=0p ps=0u w=3e+06u l=350000u
X202 vout.t62 a_n6538_n5814.t78 vss.t22 vss sky130_fd_pr__nfet_01v8_lvt ad=0p pd=0u as=0p ps=0u w=3e+06u l=350000u
X203 vss.t21 a_n6538_n5814.t79 vout.t97 vss sky130_fd_pr__nfet_01v8_lvt ad=0p pd=0u as=0p ps=0u w=3e+06u l=350000u
X204 vdd.t32 vbias.t125 vout.t180 vdd sky130_fd_pr__pfet_01v8_lvt ad=0p pd=0u as=0p ps=0u w=4e+06u l=2e+06u
X205 vout.t175 vbias.t126 vdd.t31 vdd sky130_fd_pr__pfet_01v8_lvt ad=0p pd=0u as=0p ps=0u w=4e+06u l=2e+06u
X206 vdd.t30 vbias.t127 vout.t176 vdd sky130_fd_pr__pfet_01v8_lvt ad=0p pd=0u as=0p ps=0u w=4e+06u l=2e+06u
X207 a_n6538_n5814.t15 a_4367_n15411# vss sky130_fd_pr__res_xhigh_po w=350000u l=500000u
X208 vdd.t29 vbias.t14 vbias.t15 vdd sky130_fd_pr__pfet_01v8_lvt ad=0p pd=0u as=0p ps=0u w=4e+06u l=2e+06u
X209 vdd.t28 vbias.t128 vout.t136 vdd sky130_fd_pr__pfet_01v8_lvt ad=0p pd=0u as=0p ps=0u w=4e+06u l=2e+06u
X210 a_n2720_n15566.t16 vn.t9 a_n3094_n11100.t32 vdd sky130_fd_pr__pfet_01v8_lvt ad=0p pd=0u as=0p ps=0u w=4e+06u l=350000u
X211 vout.t100 a_n6538_n5814.t80 vss.t20 vss sky130_fd_pr__nfet_01v8_lvt ad=0p pd=0u as=0p ps=0u w=3e+06u l=350000u
X212 a_n3094_n11100.t22 vbias.t129 vdd.t27 vdd sky130_fd_pr__pfet_01v8_lvt ad=0p pd=0u as=0p ps=0u w=4e+06u l=2e+06u
X213 vss.t19 a_n6538_n5814.t81 vout.t104 vss sky130_fd_pr__nfet_01v8_lvt ad=0p pd=0u as=0p ps=0u w=3e+06u l=350000u
X214 vout.t14 vbias.t130 vdd.t26 vdd sky130_fd_pr__pfet_01v8_lvt ad=0p pd=0u as=0p ps=0u w=4e+06u l=2e+06u
X215 a_n6538_n5814.t7 vp.t11 a_n3094_n11100.t0 vdd sky130_fd_pr__pfet_01v8_lvt ad=0p pd=0u as=0p ps=0u w=4e+06u l=350000u
X216 vout.t105 a_n6538_n5814.t82 vss.t18 vss sky130_fd_pr__nfet_01v8_lvt ad=0p pd=0u as=0p ps=0u w=3e+06u l=350000u
X217 vdd.t25 vbias.t131 vout.t15 vdd sky130_fd_pr__pfet_01v8_lvt ad=0p pd=0u as=0p ps=0u w=4e+06u l=2e+06u
X218 vdd.t24 vbias.t2 vbias.t3 vdd sky130_fd_pr__pfet_01v8_lvt ad=0p pd=0u as=0p ps=0u w=4e+06u l=2e+06u
X219 vout.t77 a_n6538_n5814.t83 vss.t17 vss sky130_fd_pr__nfet_01v8_lvt ad=0p pd=0u as=0p ps=0u w=3e+06u l=350000u
X220 vdd.t23 vbias.t132 vout.t164 vdd sky130_fd_pr__pfet_01v8_lvt ad=0p pd=0u as=0p ps=0u w=4e+06u l=2e+06u
X221 a_n2720_n15566.t0 vn.t10 a_n3094_n11100.t12 vdd sky130_fd_pr__pfet_01v8_lvt ad=0p pd=0u as=0p ps=0u w=4e+06u l=350000u
X222 vout.t110 a_n6538_n5814.t84 vss.t16 vss sky130_fd_pr__nfet_01v8_lvt ad=0p pd=0u as=0p ps=0u w=3e+06u l=350000u
X223 vout.t65 a_n6538_n5814.t85 vss.t15 vss sky130_fd_pr__nfet_01v8_lvt ad=0p pd=0u as=0p ps=0u w=3e+06u l=350000u
X224 vout.t165 vbias.t133 vdd.t22 vdd sky130_fd_pr__pfet_01v8_lvt ad=0p pd=0u as=0p ps=0u w=4e+06u l=2e+06u
X225 vdd.t21 vbias.t134 vout.t11 vdd sky130_fd_pr__pfet_01v8_lvt ad=0p pd=0u as=0p ps=0u w=4e+06u l=2e+06u
X226 vout.t12 vbias.t135 vdd.t20 vdd sky130_fd_pr__pfet_01v8_lvt ad=0p pd=0u as=0p ps=0u w=4e+06u l=2e+06u
X227 vout.t102 a_n6538_n5814.t86 vss.t14 vss sky130_fd_pr__nfet_01v8_lvt ad=0p pd=0u as=0p ps=0u w=3e+06u l=350000u
X228 vdd.t19 vbias.t136 vout.t41 vdd sky130_fd_pr__pfet_01v8_lvt ad=0p pd=0u as=0p ps=0u w=4e+06u l=2e+06u
X229 vout.t42 vbias.t137 vdd.t18 vdd sky130_fd_pr__pfet_01v8_lvt ad=0p pd=0u as=0p ps=0u w=4e+06u l=2e+06u
X230 vdd.t17 vbias.t138 vout.t162 vdd sky130_fd_pr__pfet_01v8_lvt ad=0p pd=0u as=0p ps=0u w=4e+06u l=2e+06u
X231 a_n3094_n11100.t14 vn.t11 a_n2720_n15566.t2 vdd sky130_fd_pr__pfet_01v8_lvt ad=0p pd=0u as=0p ps=0u w=4e+06u l=350000u
X232 vout.t163 vbias.t139 vdd.t16 vdd sky130_fd_pr__pfet_01v8_lvt ad=0p pd=0u as=0p ps=0u w=4e+06u l=2e+06u
X233 vss.t13 a_n6538_n5814.t87 vout.t76 vss sky130_fd_pr__nfet_01v8_lvt ad=0p pd=0u as=0p ps=0u w=3e+06u l=350000u
X234 vout.t84 a_n6538_n5814.t88 vss.t12 vss sky130_fd_pr__nfet_01v8_lvt ad=0p pd=0u as=0p ps=0u w=3e+06u l=350000u
X235 vout.t78 a_n6538_n5814.t89 vss.t11 vss sky130_fd_pr__nfet_01v8_lvt ad=0p pd=0u as=0p ps=0u w=3e+06u l=350000u
X236 vdd.t15 vbias.t140 vout.t185 vdd sky130_fd_pr__pfet_01v8_lvt ad=0p pd=0u as=0p ps=0u w=4e+06u l=2e+06u
X237 vdd.t14 vbias.t141 vout.t186 vdd sky130_fd_pr__pfet_01v8_lvt ad=0p pd=0u as=0p ps=0u w=4e+06u l=2e+06u
X238 a_n3094_n11100.t21 vbias.t142 vdd.t13 vdd sky130_fd_pr__pfet_01v8_lvt ad=0p pd=0u as=0p ps=0u w=4e+06u l=2e+06u
X239 vdd.t12 vbias.t143 vout.t10 vdd sky130_fd_pr__pfet_01v8_lvt ad=0p pd=0u as=0p ps=0u w=4e+06u l=2e+06u
X240 vdd.t11 vbias.t144 vout.t134 vdd sky130_fd_pr__pfet_01v8_lvt ad=0p pd=0u as=0p ps=0u w=4e+06u l=2e+06u
X241 vdd.t10 vbias.t145 vout.t135 vdd sky130_fd_pr__pfet_01v8_lvt ad=0p pd=0u as=0p ps=0u w=4e+06u l=2e+06u
X242 vout.t18 vbias.t146 vdd.t9 vdd sky130_fd_pr__pfet_01v8_lvt ad=0p pd=0u as=0p ps=0u w=4e+06u l=2e+06u
X243 vss.t10 a_n6538_n5814.t90 vout.t118 vss sky130_fd_pr__nfet_01v8_lvt ad=0p pd=0u as=0p ps=0u w=3e+06u l=350000u
X244 vss.t9 a_n6538_n5814.t91 vout.t109 vss sky130_fd_pr__nfet_01v8_lvt ad=0p pd=0u as=0p ps=0u w=3e+06u l=350000u
X245 a_n3094_n11100.t20 vbias.t147 vdd.t8 vdd sky130_fd_pr__pfet_01v8_lvt ad=0p pd=0u as=0p ps=0u w=4e+06u l=2e+06u
X246 vout.t52 a_n6538_n5814.t92 vss.t8 vss sky130_fd_pr__nfet_01v8_lvt ad=0p pd=0u as=0p ps=0u w=3e+06u l=350000u
X247 vss.t7 a_n6538_n5814.t93 vout.t114 vss sky130_fd_pr__nfet_01v8_lvt ad=0p pd=0u as=0p ps=0u w=3e+06u l=350000u
X248 vdd.t7 vbias.t148 a_n3094_n11100.t19 vdd sky130_fd_pr__pfet_01v8_lvt ad=0p pd=0u as=0p ps=0u w=4e+06u l=2e+06u
X249 vss.t6 a_n6538_n5814.t94 vout.t120 vss sky130_fd_pr__nfet_01v8_lvt ad=0p pd=0u as=0p ps=0u w=3e+06u l=350000u
X250 vout.t177 vbias.t149 vdd.t6 vdd sky130_fd_pr__pfet_01v8_lvt ad=0p pd=0u as=0p ps=0u w=4e+06u l=2e+06u
X251 vout.t173 vbias.t150 vdd.t5 vdd sky130_fd_pr__pfet_01v8_lvt ad=0p pd=0u as=0p ps=0u w=4e+06u l=2e+06u
X252 vdd.t4 vbias.t151 vout.t174 vdd sky130_fd_pr__pfet_01v8_lvt ad=0p pd=0u as=0p ps=0u w=4e+06u l=2e+06u
X253 a_n3094_n11100.t18 vbias.t152 vdd.t3 vdd sky130_fd_pr__pfet_01v8_lvt ad=0p pd=0u as=0p ps=0u w=4e+06u l=2e+06u
X254 vdd.t2 vbias.t153 a_n3094_n11100.t17 vdd sky130_fd_pr__pfet_01v8_lvt ad=0p pd=0u as=0p ps=0u w=4e+06u l=2e+06u
X255 vss.t5 a_n6538_n5814.t95 vout.t88 vss sky130_fd_pr__nfet_01v8_lvt ad=0p pd=0u as=0p ps=0u w=3e+06u l=350000u
X256 vout.t106 a_n6538_n5814.t96 vss.t4 vss sky130_fd_pr__nfet_01v8_lvt ad=0p pd=0u as=0p ps=0u w=3e+06u l=350000u
X257 vdd.t1 vbias.t154 vout.t4 vdd sky130_fd_pr__pfet_01v8_lvt ad=0p pd=0u as=0p ps=0u w=4e+06u l=2e+06u
X258 vdd.t0 vbias.t155 a_n3094_n11100.t16 vdd sky130_fd_pr__pfet_01v8_lvt ad=0p pd=0u as=0p ps=0u w=4e+06u l=2e+06u
C0 vn vp 3.40fF
C1 a_4367_n15411# vout 18.79fF
C2 vdd vout 18.72fF
C3 vdd vbias 48.38fF
C4 vout vbias 33.79fF
C5 vdd vn 1.14fF
C6 vdd vp 1.01fF
R0 a_n6538_n5814.n9 a_n6538_n5814.t26 278.38
R1 a_n6538_n5814.n9 a_n6538_n5814.t88 278.184
R2 a_n6538_n5814.n6 a_n6538_n5814.t55 278.184
R3 a_n6538_n5814.n9 a_n6538_n5814.t41 278.183
R4 a_n6538_n5814.n9 a_n6538_n5814.t38 278.183
R5 a_n6538_n5814.n8 a_n6538_n5814.t46 278.183
R6 a_n6538_n5814.n8 a_n6538_n5814.t43 278.183
R7 a_n6538_n5814.n8 a_n6538_n5814.t52 278.183
R8 a_n6538_n5814.n8 a_n6538_n5814.t74 278.183
R9 a_n6538_n5814.n7 a_n6538_n5814.t80 278.183
R10 a_n6538_n5814.n7 a_n6538_n5814.t77 278.183
R11 a_n6538_n5814.n7 a_n6538_n5814.t85 278.183
R12 a_n6538_n5814.n7 a_n6538_n5814.t83 278.183
R13 a_n6538_n5814.n5 a_n6538_n5814.t31 278.183
R14 a_n6538_n5814.n5 a_n6538_n5814.t28 278.183
R15 a_n6538_n5814.n5 a_n6538_n5814.t48 278.183
R16 a_n6538_n5814.n5 a_n6538_n5814.t96 278.183
R17 a_n6538_n5814.n6 a_n6538_n5814.t19 278.183
R18 a_n6538_n5814.n6 a_n6538_n5814.t58 278.183
R19 a_n6538_n5814.n6 a_n6538_n5814.t62 278.183
R20 a_n6538_n5814.n6 a_n6538_n5814.t53 278.183