* NGSPICE file created from OTA_revised_post.ext - technology: sky130A

.subckt OTA_revised_post vdd vp vn vbias vss vout
X0 vdd.t95 vbias.t28 vbias.t29 vdd sky130_fd_pr__pfet_01v8_lvt ad=0p pd=0u as=0p ps=0u w=2e+06u l=1e+06u
X1 vss.t92 a_981_n7583.t24 a_981_n7583.t25 vss sky130_fd_pr__nfet_01v8_lvt ad=0p pd=0u as=0p ps=0u w=1e+06u l=1e+06u
X2 vss.t91 a_981_n7583.t18 a_981_n7583.t19 vss sky130_fd_pr__nfet_01v8_lvt ad=0p pd=0u as=0p ps=0u w=1e+06u l=1e+06u
X3 vout.t103 vbias.t48 vdd.t94 vdd sky130_fd_pr__pfet_01v8_lvt ad=0p pd=0u as=0p ps=0u w=2e+06u l=1e+06u
X4 vdd.t93 vbias.t24 vbias.t25 vdd sky130_fd_pr__pfet_01v8_lvt ad=0p pd=0u as=0p ps=0u w=2e+06u l=1e+06u
X5 a_981_n7583.t46 vn.t0 w_785_n5483.t20 w_785_n5483# sky130_fd_pr__pfet_01v8_lvt ad=0p pd=0u as=0p ps=0u w=4e+06u l=1e+06u
X6 vss.t45 a_1925_n7495.t33 vout.t46 vss sky130_fd_pr__nfet_01v8_lvt ad=0p pd=0u as=0p ps=0u w=1e+06u l=1e+06u
X7 a_981_n7583.t27 a_981_n7583.t26 vss.t90 vss sky130_fd_pr__nfet_01v8_lvt ad=0p pd=0u as=0p ps=0u w=1e+06u l=1e+06u
X8 a_981_n7583.t21 a_981_n7583.t20 vss.t89 vss sky130_fd_pr__nfet_01v8_lvt ad=0p pd=0u as=0p ps=0u w=1e+06u l=1e+06u
X9 w_785_n5483.t44 vbias.t49 vdd.t92 vdd sky130_fd_pr__pfet_01v8_lvt ad=0p pd=0u as=0p ps=0u w=2e+06u l=1e+06u
X10 vdd.t91 vbias.t50 vout.t102 vdd sky130_fd_pr__pfet_01v8_lvt ad=0p pd=0u as=0p ps=0u w=2e+06u l=1e+06u
X11 w_785_n5483.t43 vbias.t51 vdd.t90 vdd sky130_fd_pr__pfet_01v8_lvt ad=0p pd=0u as=0p ps=0u w=2e+06u l=1e+06u
X12 w_785_n5483.t19 vn.t1 a_981_n7583.t5 w_785_n5483# sky130_fd_pr__pfet_01v8_lvt ad=0p pd=0u as=0p ps=0u w=4e+06u l=1e+06u
X13 a_1925_n7495.t0 vp.t0 w_785_n5483.t0 w_785_n5483# sky130_fd_pr__pfet_01v8_lvt ad=0p pd=0u as=0p ps=0u w=4e+06u l=1e+06u
X14 vss.t17 a_1925_n7495.t34 vout.t17 vss sky130_fd_pr__nfet_01v8_lvt ad=0p pd=0u as=0p ps=0u w=1e+06u l=1e+06u
X15 vout.t16 a_1925_n7495.t35 vss.t16 vss sky130_fd_pr__nfet_01v8_lvt ad=0p pd=0u as=0p ps=0u w=1e+06u l=1e+06u
X16 vout.t101 vbias.t52 vdd.t89 vdd sky130_fd_pr__pfet_01v8_lvt ad=0p pd=0u as=0p ps=0u w=2e+06u l=1e+06u
X17 w_785_n5483.t54 vp.t1 a_1925_n7495.t31 w_785_n5483# sky130_fd_pr__pfet_01v8_lvt ad=0p pd=0u as=0p ps=0u w=4e+06u l=1e+06u
X18 vdd.t88 vbias.t40 vbias.t41 vdd sky130_fd_pr__pfet_01v8_lvt ad=0p pd=0u as=0p ps=0u w=2e+06u l=1e+06u
X19 vss.t15 a_1925_n7495.t36 vout.t15 vss sky130_fd_pr__nfet_01v8_lvt ad=0p pd=0u as=0p ps=0u w=1e+06u l=1e+06u
X20 vdd.t87 vbias.t53 w_785_n5483.t42 vdd sky130_fd_pr__pfet_01v8_lvt ad=0p pd=0u as=0p ps=0u w=2e+06u l=1e+06u
X21 vbias.t1 vbias.t0 vdd.t86 vdd sky130_fd_pr__pfet_01v8_lvt ad=0p pd=0u as=0p ps=0u w=2e+06u l=1e+06u
X22 w_785_n5483.t41 vbias.t54 vdd.t85 vdd sky130_fd_pr__pfet_01v8_lvt ad=0p pd=0u as=0p ps=0u w=2e+06u l=1e+06u
X23 vss.t31 a_1925_n7495.t37 vout.t31 vss sky130_fd_pr__nfet_01v8_lvt ad=0p pd=0u as=0p ps=0u w=1e+06u l=1e+06u
X24 vss.t42 a_1925_n7495.t38 vout.t42 vss sky130_fd_pr__nfet_01v8_lvt ad=0p pd=0u as=0p ps=0u w=1e+06u l=1e+06u
X25 w_785_n5483.t40 vbias.t55 vdd.t84 vdd sky130_fd_pr__pfet_01v8_lvt ad=0p pd=0u as=0p ps=0u w=2e+06u l=1e+06u
X26 vout.t54 a_1925_n7495.t39 vss.t53 vss sky130_fd_pr__nfet_01v8_lvt ad=0p pd=0u as=0p ps=0u w=1e+06u l=1e+06u
X27 vout.t100 vbias.t56 vdd.t83 vdd sky130_fd_pr__pfet_01v8_lvt ad=0p pd=0u as=0p ps=0u w=2e+06u l=1e+06u
X28 vout.t30 a_1925_n7495.t40 vss.t30 vss sky130_fd_pr__nfet_01v8_lvt ad=0p pd=0u as=0p ps=0u w=1e+06u l=1e+06u
X29 vss.t88 a_981_n7583.t48 a_1925_n7495.t30 vss sky130_fd_pr__nfet_01v8_lvt ad=0p pd=0u as=0p ps=0u w=1e+06u l=1e+06u
X30 vout.t10 a_1925_n7495.t41 vss.t10 vss sky130_fd_pr__nfet_01v8_lvt ad=0p pd=0u as=0p ps=0u w=1e+06u l=1e+06u
X31 vdd.t82 vbias.t57 w_785_n5483.t39 vdd sky130_fd_pr__pfet_01v8_lvt ad=0p pd=0u as=0p ps=0u w=2e+06u l=1e+06u
X32 vbias.t43 vbias.t42 vdd.t81 vdd sky130_fd_pr__pfet_01v8_lvt ad=0p pd=0u as=0p ps=0u w=2e+06u l=1e+06u
X33 vss.t52 a_1925_n7495.t42 vout.t53 vss sky130_fd_pr__nfet_01v8_lvt ad=0p pd=0u as=0p ps=0u w=1e+06u l=1e+06u
X34 vss.t87 a_981_n7583.t49 a_1925_n7495.t29 vss sky130_fd_pr__nfet_01v8_lvt ad=0p pd=0u as=0p ps=0u w=1e+06u l=1e+06u
X35 vdd.t80 vbias.t36 vbias.t37 vdd sky130_fd_pr__pfet_01v8_lvt ad=0p pd=0u as=0p ps=0u w=2e+06u l=1e+06u
X36 vdd.t79 vbias.t58 w_785_n5483.t38 vdd sky130_fd_pr__pfet_01v8_lvt ad=0p pd=0u as=0p ps=0u w=2e+06u l=1e+06u
X37 vdd.t78 vbias.t59 vout.t99 vdd sky130_fd_pr__pfet_01v8_lvt ad=0p pd=0u as=0p ps=0u w=2e+06u l=1e+06u
X38 vdd.t77 vbias.t60 w_785_n5483.t37 vdd sky130_fd_pr__pfet_01v8_lvt ad=0p pd=0u as=0p ps=0u w=2e+06u l=1e+06u
X39 vbias.t3 vbias.t2 vdd.t76 vdd sky130_fd_pr__pfet_01v8_lvt ad=0p pd=0u as=0p ps=0u w=2e+06u l=1e+06u
X40 vout.t29 a_1925_n7495.t43 vss.t29 vss sky130_fd_pr__nfet_01v8_lvt ad=0p pd=0u as=0p ps=0u w=1e+06u l=1e+06u
X41 vout.t9 a_1925_n7495.t44 vss.t9 vss sky130_fd_pr__nfet_01v8_lvt ad=0p pd=0u as=0p ps=0u w=1e+06u l=1e+06u
X42 vout.t98 vbias.t61 vdd.t75 vdd sky130_fd_pr__pfet_01v8_lvt ad=0p pd=0u as=0p ps=0u w=2e+06u l=1e+06u
X43 w_785_n5483.t4 vp.t2 a_1925_n7495.t4 w_785_n5483# sky130_fd_pr__pfet_01v8_lvt ad=0p pd=0u as=0p ps=0u w=4e+06u l=1e+06u
X44 w_785_n5483.t36 vbias.t62 vdd.t74 vdd sky130_fd_pr__pfet_01v8_lvt ad=0p pd=0u as=0p ps=0u w=2e+06u l=1e+06u
X45 w_785_n5483.t18 vn.t2 a_981_n7583.t7 w_785_n5483# sky130_fd_pr__pfet_01v8_lvt ad=0p pd=0u as=0p ps=0u w=4e+06u l=1e+06u
X46 vss.t86 a_981_n7583.t50 a_1925_n7495.t28 vss sky130_fd_pr__nfet_01v8_lvt ad=0p pd=0u as=0p ps=0u w=1e+06u l=1e+06u
X47 a_981_n7583.t4 vn.t3 w_785_n5483.t17 w_785_n5483# sky130_fd_pr__pfet_01v8_lvt ad=0p pd=0u as=0p ps=0u w=4e+06u l=1e+06u
X48 vout.t36 a_1925_n7495.t45 vss.t36 vss sky130_fd_pr__nfet_01v8_lvt ad=0p pd=0u as=0p ps=0u w=1e+06u l=1e+06u
X49 vout.t52 a_1925_n7495.t46 vss.t51 vss sky130_fd_pr__nfet_01v8_lvt ad=0p pd=0u as=0p ps=0u w=1e+06u l=1e+06u
X50 vout.t28 a_1925_n7495.t47 vss.t28 vss sky130_fd_pr__nfet_01v8_lvt ad=0p pd=0u as=0p ps=0u w=1e+06u l=1e+06u
X51 vss.t8 a_1925_n7495.t48 vout.t8 vss sky130_fd_pr__nfet_01v8_lvt ad=0p pd=0u as=0p ps=0u w=1e+06u l=1e+06u
X52 w_785_n5483.t35 vbias.t63 vdd.t73 vdd sky130_fd_pr__pfet_01v8_lvt ad=0p pd=0u as=0p ps=0u w=2e+06u l=1e+06u
X53 vdd.t72 vbias.t38 vbias.t39 vdd sky130_fd_pr__pfet_01v8_lvt ad=0p pd=0u as=0p ps=0u w=2e+06u l=1e+06u
X54 a_981_n7583.t11 vn.t4 w_785_n5483.t16 w_785_n5483# sky130_fd_pr__pfet_01v8_lvt ad=0p pd=0u as=0p ps=0u w=4e+06u l=1e+06u
X55 vss.t21 a_1925_n7495.t49 vout.t21 vss sky130_fd_pr__nfet_01v8_lvt ad=0p pd=0u as=0p ps=0u w=1e+06u l=1e+06u
X56 vss.t39 a_1925_n7495.t50 vout.t39 vss sky130_fd_pr__nfet_01v8_lvt ad=0p pd=0u as=0p ps=0u w=1e+06u l=1e+06u
X57 vdd.t71 vbias.t64 vout.t97 vdd sky130_fd_pr__pfet_01v8_lvt ad=0p pd=0u as=0p ps=0u w=2e+06u l=1e+06u
X58 vdd.t70 vbias.t65 vout.t96 vdd sky130_fd_pr__pfet_01v8_lvt ad=0p pd=0u as=0p ps=0u w=2e+06u l=1e+06u
X59 vdd.t69 vbias.t66 vout.t95 vdd sky130_fd_pr__pfet_01v8_lvt ad=0p pd=0u as=0p ps=0u w=2e+06u l=1e+06u
X60 w_785_n5483.t15 vn.t5 a_981_n7583.t13 w_785_n5483# sky130_fd_pr__pfet_01v8_lvt ad=0p pd=0u as=0p ps=0u w=4e+06u l=1e+06u
X61 a_981_n7583.t29 a_981_n7583.t28 vss.t85 vss sky130_fd_pr__nfet_01v8_lvt ad=0p pd=0u as=0p ps=0u w=1e+06u l=1e+06u
X62 vdd.t68 vbias.t46 vbias.t47 vdd sky130_fd_pr__pfet_01v8_lvt ad=0p pd=0u as=0p ps=0u w=2e+06u l=1e+06u
X63 w_785_n5483.t46 vp.t3 a_1925_n7495.t7 w_785_n5483# sky130_fd_pr__pfet_01v8_lvt ad=0p pd=0u as=0p ps=0u w=4e+06u l=1e+06u
X64 vss.t84 a_981_n7583.t14 a_981_n7583.t15 vss sky130_fd_pr__nfet_01v8_lvt ad=0p pd=0u as=0p ps=0u w=1e+06u l=1e+06u
X65 a_1925_n7495.t27 a_981_n7583.t51 vss.t83 vss sky130_fd_pr__nfet_01v8_lvt ad=0p pd=0u as=0p ps=0u w=1e+06u l=1e+06u
X66 vout.t51 a_1925_n7495.t51 vss.t50 vss sky130_fd_pr__nfet_01v8_lvt ad=0p pd=0u as=0p ps=0u w=1e+06u l=1e+06u
X67 vdd.t67 vbias.t67 vout.t94 vdd sky130_fd_pr__pfet_01v8_lvt ad=0p pd=0u as=0p ps=0u w=2e+06u l=1e+06u
X68 vdd.t66 vbias.t68 vout.t93 vdd sky130_fd_pr__pfet_01v8_lvt ad=0p pd=0u as=0p ps=0u w=2e+06u l=1e+06u
X69 vss.t27 a_1925_n7495.t52 vout.t27 vss sky130_fd_pr__nfet_01v8_lvt ad=0p pd=0u as=0p ps=0u w=1e+06u l=1e+06u
X70 vbias.t15 vbias.t14 vdd.t65 vdd sky130_fd_pr__pfet_01v8_lvt ad=0p pd=0u as=0p ps=0u w=2e+06u l=1e+06u
X71 w_785_n5483.t34 vbias.t69 vdd.t64 vdd sky130_fd_pr__pfet_01v8_lvt ad=0p pd=0u as=0p ps=0u w=2e+06u l=1e+06u
X72 vout.t92 vbias.t70 vdd.t63 vdd sky130_fd_pr__pfet_01v8_lvt ad=0p pd=0u as=0p ps=0u w=2e+06u l=1e+06u
X73 w_785_n5483.t55 vp.t4 a_1925_n7495.t32 w_785_n5483# sky130_fd_pr__pfet_01v8_lvt ad=0p pd=0u as=0p ps=0u w=4e+06u l=1e+06u
X74 vdd.t62 vbias.t10 vbias.t11 vdd sky130_fd_pr__pfet_01v8_lvt ad=0p pd=0u as=0p ps=0u w=2e+06u l=1e+06u
X75 vdd.t61 vbias.t71 vout.t91 vdd sky130_fd_pr__pfet_01v8_lvt ad=0p pd=0u as=0p ps=0u w=2e+06u l=1e+06u
X76 vout.t90 vbias.t72 vdd.t60 vdd sky130_fd_pr__pfet_01v8_lvt ad=0p pd=0u as=0p ps=0u w=2e+06u l=1e+06u
X77 vss.t7 a_1925_n7495.t53 vout.t7 vss sky130_fd_pr__nfet_01v8_lvt ad=0p pd=0u as=0p ps=0u w=1e+06u l=1e+06u
X78 vout.t89 vbias.t73 vdd.t59 vdd sky130_fd_pr__pfet_01v8_lvt ad=0p pd=0u as=0p ps=0u w=2e+06u l=1e+06u
X79 a_1925_n7495.t3 vp.t5 w_785_n5483.t3 w_785_n5483# sky130_fd_pr__pfet_01v8_lvt ad=0p pd=0u as=0p ps=0u w=4e+06u l=1e+06u
X80 vout.t50 a_1925_n7495.t54 vss.t49 vss sky130_fd_pr__nfet_01v8_lvt ad=0p pd=0u as=0p ps=0u w=1e+06u l=1e+06u
X81 vss.t82 a_981_n7583.t52 a_1925_n7495.t26 vss sky130_fd_pr__nfet_01v8_lvt ad=0p pd=0u as=0p ps=0u w=1e+06u l=1e+06u
X82 vout.t88 vbias.t74 vdd.t58 vdd sky130_fd_pr__pfet_01v8_lvt ad=0p pd=0u as=0p ps=0u w=2e+06u l=1e+06u
X83 vss.t81 a_981_n7583.t53 a_1925_n7495.t25 vss sky130_fd_pr__nfet_01v8_lvt ad=0p pd=0u as=0p ps=0u w=1e+06u l=1e+06u
X84 a_1925_n7495.t24 a_981_n7583.t54 vss.t80 vss sky130_fd_pr__nfet_01v8_lvt ad=0p pd=0u as=0p ps=0u w=1e+06u l=1e+06u
X85 vout.t108 a_1925_n7495.t55 vss.t59 vss sky130_fd_pr__nfet_01v8_lvt ad=0p pd=0u as=0p ps=0u w=1e+06u l=1e+06u
X86 vdd.t57 vbias.t75 vout.t87 vdd sky130_fd_pr__pfet_01v8_lvt ad=0p pd=0u as=0p ps=0u w=2e+06u l=1e+06u
X87 a_981_n7583.t6 vn.t6 w_785_n5483.t14 w_785_n5483# sky130_fd_pr__pfet_01v8_lvt ad=0p pd=0u as=0p ps=0u w=4e+06u l=1e+06u
X88 vout.t26 a_1925_n7495.t56 vss.t26 vss sky130_fd_pr__nfet_01v8_lvt ad=0p pd=0u as=0p ps=0u w=1e+06u l=1e+06u
X89 vout.t6 a_1925_n7495.t57 vss.t6 vss sky130_fd_pr__nfet_01v8_lvt ad=0p pd=0u as=0p ps=0u w=1e+06u l=1e+06u
X90 w_785_n5483.t33 vbias.t76 vdd.t56 vdd sky130_fd_pr__pfet_01v8_lvt ad=0p pd=0u as=0p ps=0u w=2e+06u l=1e+06u
X91 vss.t48 a_1925_n7495.t58 vout.t49 vss sky130_fd_pr__nfet_01v8_lvt ad=0p pd=0u as=0p ps=0u w=1e+06u l=1e+06u
X92 vss.t14 a_1925_n7495.t59 vout.t14 vss sky130_fd_pr__nfet_01v8_lvt ad=0p pd=0u as=0p ps=0u w=1e+06u l=1e+06u
X93 vdd.t55 vbias.t16 vbias.t17 vdd sky130_fd_pr__pfet_01v8_lvt ad=0p pd=0u as=0p ps=0u w=2e+06u l=1e+06u
X94 vout.t86 vbias.t77 vdd.t54 vdd sky130_fd_pr__pfet_01v8_lvt ad=0p pd=0u as=0p ps=0u w=2e+06u l=1e+06u
X95 vdd.t53 vbias.t78 vout.t85 vdd sky130_fd_pr__pfet_01v8_lvt ad=0p pd=0u as=0p ps=0u w=2e+06u l=1e+06u
X96 w_785_n5483.t13 vn.t7 a_981_n7583.t0 w_785_n5483# sky130_fd_pr__pfet_01v8_lvt ad=0p pd=0u as=0p ps=0u w=4e+06u l=1e+06u
X97 vbias.t21 vbias.t20 vdd.t52 vdd sky130_fd_pr__pfet_01v8_lvt ad=0p pd=0u as=0p ps=0u w=2e+06u l=1e+06u
X98 a_981_n7583.t37 a_981_n7583.t36 vss.t79 vss sky130_fd_pr__nfet_01v8_lvt ad=0p pd=0u as=0p ps=0u w=1e+06u l=1e+06u
X99 a_981_n7583.t39 a_981_n7583.t38 vss.t78 vss sky130_fd_pr__nfet_01v8_lvt ad=0p pd=0u as=0p ps=0u w=1e+06u l=1e+06u
X100 vbias.t19 vbias.t18 vdd.t51 vdd sky130_fd_pr__pfet_01v8_lvt ad=0p pd=0u as=0p ps=0u w=2e+06u l=1e+06u
X101 a_1925_n7495.t1 vp.t6 w_785_n5483.t1 w_785_n5483# sky130_fd_pr__pfet_01v8_lvt ad=0p pd=0u as=0p ps=0u w=4e+06u l=1e+06u
X102 vdd.t50 vbias.t30 vbias.t31 vdd sky130_fd_pr__pfet_01v8_lvt ad=0p pd=0u as=0p ps=0u w=2e+06u l=1e+06u
X103 vout.t25 a_1925_n7495.t60 vss.t25 vss sky130_fd_pr__nfet_01v8_lvt ad=0p pd=0u as=0p ps=0u w=1e+06u l=1e+06u
X104 vdd.t49 vbias.t4 vbias.t5 vdd sky130_fd_pr__pfet_01v8_lvt ad=0p pd=0u as=0p ps=0u w=2e+06u l=1e+06u
X105 vss.t77 a_981_n7583.t22 a_981_n7583.t23 vss sky130_fd_pr__nfet_01v8_lvt ad=0p pd=0u as=0p ps=0u w=1e+06u l=1e+06u
X106 vss.t76 a_981_n7583.t42 a_981_n7583.t43 vss sky130_fd_pr__nfet_01v8_lvt ad=0p pd=0u as=0p ps=0u w=1e+06u l=1e+06u
X107 vss.t41 a_1925_n7495.t61 vout.t41 vss sky130_fd_pr__nfet_01v8_lvt ad=0p pd=0u as=0p ps=0u w=1e+06u l=1e+06u
X108 vout.t48 a_1925_n7495.t62 vss.t47 vss sky130_fd_pr__nfet_01v8_lvt ad=0p pd=0u as=0p ps=0u w=1e+06u l=1e+06u
X109 vout.t24 a_1925_n7495.t63 vss.t24 vss sky130_fd_pr__nfet_01v8_lvt ad=0p pd=0u as=0p ps=0u w=1e+06u l=1e+06u
X110 vout.t84 vbias.t79 vdd.t48 vdd sky130_fd_pr__pfet_01v8_lvt ad=0p pd=0u as=0p ps=0u w=2e+06u l=1e+06u
X111 vss.t5 a_1925_n7495.t64 vout.t5 vss sky130_fd_pr__nfet_01v8_lvt ad=0p pd=0u as=0p ps=0u w=1e+06u l=1e+06u
X112 vbias.t27 vbias.t26 vdd.t47 vdd sky130_fd_pr__pfet_01v8_lvt ad=0p pd=0u as=0p ps=0u w=2e+06u l=1e+06u
X113 w_785_n5483.t32 vbias.t80 vdd.t46 vdd sky130_fd_pr__pfet_01v8_lvt ad=0p pd=0u as=0p ps=0u w=2e+06u l=1e+06u
X114 vss.t35 a_1925_n7495.t65 vout.t35 vss sky130_fd_pr__nfet_01v8_lvt ad=0p pd=0u as=0p ps=0u w=1e+06u l=1e+06u
X115 vdd.t45 vbias.t81 w_785_n5483.t31 vdd sky130_fd_pr__pfet_01v8_lvt ad=0p pd=0u as=0p ps=0u w=2e+06u l=1e+06u
X116 vdd.t44 vbias.t44 vbias.t45 vdd sky130_fd_pr__pfet_01v8_lvt ad=0p pd=0u as=0p ps=0u w=2e+06u l=1e+06u
X117 vbias.t13 vbias.t12 vdd.t43 vdd sky130_fd_pr__pfet_01v8_lvt ad=0p pd=0u as=0p ps=0u w=2e+06u l=1e+06u
X118 vout.t83 vbias.t82 vdd.t42 vdd sky130_fd_pr__pfet_01v8_lvt ad=0p pd=0u as=0p ps=0u w=2e+06u l=1e+06u
X119 vss.t13 a_1925_n7495.t66 vout.t13 vss sky130_fd_pr__nfet_01v8_lvt ad=0p pd=0u as=0p ps=0u w=1e+06u l=1e+06u
X120 vss.t23 a_1925_n7495.t67 vout.t23 vss sky130_fd_pr__nfet_01v8_lvt ad=0p pd=0u as=0p ps=0u w=1e+06u l=1e+06u
X121 vss.t75 a_981_n7583.t30 a_981_n7583.t31 vss sky130_fd_pr__nfet_01v8_lvt ad=0p pd=0u as=0p ps=0u w=1e+06u l=1e+06u
X122 vss.t40 a_1925_n7495.t68 vout.t40 vss sky130_fd_pr__nfet_01v8_lvt ad=0p pd=0u as=0p ps=0u w=1e+06u l=1e+06u
X123 vout.t22 a_1925_n7495.t69 vss.t22 vss sky130_fd_pr__nfet_01v8_lvt ad=0p pd=0u as=0p ps=0u w=1e+06u l=1e+06u
X124 a_981_n7583.t33 a_981_n7583.t32 vss.t74 vss sky130_fd_pr__nfet_01v8_lvt ad=0p pd=0u as=0p ps=0u w=1e+06u l=1e+06u
X125 w_785_n5483.t2 vp.t7 a_1925_n7495.t2 w_785_n5483# sky130_fd_pr__pfet_01v8_lvt ad=0p pd=0u as=0p ps=0u w=4e+06u l=1e+06u
X126 vout.t34 a_1925_n7495.t70 vss.t34 vss sky130_fd_pr__nfet_01v8_lvt ad=0p pd=0u as=0p ps=0u w=1e+06u l=1e+06u
X127 vss.t46 a_1925_n7495.t71 vout.t47 vss sky130_fd_pr__nfet_01v8_lvt ad=0p pd=0u as=0p ps=0u w=1e+06u l=1e+06u
X128 vss.t2 a_1925_n7495.t72 vout.t2 vss sky130_fd_pr__nfet_01v8_lvt ad=0p pd=0u as=0p ps=0u w=1e+06u l=1e+06u
X129 vbias.t7 vbias.t6 vdd.t41 vdd sky130_fd_pr__pfet_01v8_lvt ad=0p pd=0u as=0p ps=0u w=2e+06u l=1e+06u
X130 vout.t82 vbias.t83 vdd.t40 vdd sky130_fd_pr__pfet_01v8_lvt ad=0p pd=0u as=0p ps=0u w=2e+06u l=1e+06u
X131 vout.t81 vbias.t84 vdd.t39 vdd sky130_fd_pr__pfet_01v8_lvt ad=0p pd=0u as=0p ps=0u w=2e+06u l=1e+06u
X132 a_1925_n7495.t6 vp.t8 w_785_n5483.t45 w_785_n5483# sky130_fd_pr__pfet_01v8_lvt ad=0p pd=0u as=0p ps=0u w=4e+06u l=1e+06u
X133 w_785_n5483.t30 vbias.t85 vdd.t38 vdd sky130_fd_pr__pfet_01v8_lvt ad=0p pd=0u as=0p ps=0u w=2e+06u l=1e+06u
X134 vdd.t37 vbias.t86 vout.t80 vdd sky130_fd_pr__pfet_01v8_lvt ad=0p pd=0u as=0p ps=0u w=2e+06u l=1e+06u
X135 w_785_n5483.t12 vn.t8 a_981_n7583.t10 w_785_n5483# sky130_fd_pr__pfet_01v8_lvt ad=0p pd=0u as=0p ps=0u w=4e+06u l=1e+06u
X136 vss.t0 a_1925_n7495.t73 vout.t0 vss sky130_fd_pr__nfet_01v8_lvt ad=0p pd=0u as=0p ps=0u w=1e+06u l=1e+06u
X137 vdd.t36 vbias.t87 vout.t79 vdd sky130_fd_pr__pfet_01v8_lvt ad=0p pd=0u as=0p ps=0u w=2e+06u l=1e+06u
X138 a_1925_n7495.t23 a_981_n7583.t55 vss.t73 vss sky130_fd_pr__nfet_01v8_lvt ad=0p pd=0u as=0p ps=0u w=1e+06u l=1e+06u
X139 a_981_n7583.t9 vn.t9 w_785_n5483.t11 w_785_n5483# sky130_fd_pr__pfet_01v8_lvt ad=0p pd=0u as=0p ps=0u w=4e+06u l=1e+06u
X140 a_1925_n7495.t5 a_6115_n3891# vss sky130_fd_pr__res_xhigh_po w=350000u l=500000u
X141 vout.t111 a_1925_n7495.t74 vss.t94 vss sky130_fd_pr__nfet_01v8_lvt ad=0p pd=0u as=0p ps=0u w=1e+06u l=1e+06u
X142 a_981_n7583.t47 vn.t10 w_785_n5483.t10 w_785_n5483# sky130_fd_pr__pfet_01v8_lvt ad=0p pd=0u as=0p ps=0u w=4e+06u l=1e+06u
X143 vss.t72 a_981_n7583.t56 a_1925_n7495.t22 vss sky130_fd_pr__nfet_01v8_lvt ad=0p pd=0u as=0p ps=0u w=1e+06u l=1e+06u
X144 vdd.t35 vbias.t88 vout.t78 vdd sky130_fd_pr__pfet_01v8_lvt ad=0p pd=0u as=0p ps=0u w=2e+06u l=1e+06u
X145 w_785_n5483.t9 vn.t11 a_981_n7583.t3 w_785_n5483# sky130_fd_pr__pfet_01v8_lvt ad=0p pd=0u as=0p ps=0u w=4e+06u l=1e+06u
X146 vdd.t34 vbias.t89 vout.t77 vdd sky130_fd_pr__pfet_01v8_lvt ad=0p pd=0u as=0p ps=0u w=2e+06u l=1e+06u
X147 vbias.t33 vbias.t32 vdd.t33 vdd sky130_fd_pr__pfet_01v8_lvt ad=0p pd=0u as=0p ps=0u w=2e+06u l=1e+06u
X148 vdd.t32 vbias.t90 w_785_n5483.t29 vdd sky130_fd_pr__pfet_01v8_lvt ad=0p pd=0u as=0p ps=0u w=2e+06u l=1e+06u
X149 vdd.t31 vbias.t91 w_785_n5483.t28 vdd sky130_fd_pr__pfet_01v8_lvt ad=0p pd=0u as=0p ps=0u w=2e+06u l=1e+06u
X150 vout.t76 vbias.t92 vdd.t30 vdd sky130_fd_pr__pfet_01v8_lvt ad=0p pd=0u as=0p ps=0u w=2e+06u l=1e+06u
X151 a_1925_n7495.t12 vp.t9 w_785_n5483.t51 w_785_n5483# sky130_fd_pr__pfet_01v8_lvt ad=0p pd=0u as=0p ps=0u w=4e+06u l=1e+06u
X152 vout.t105 a_1925_n7495.t75 vss.t56 vss sky130_fd_pr__nfet_01v8_lvt ad=0p pd=0u as=0p ps=0u w=1e+06u l=1e+06u
X153 vdd.t29 vbias.t93 vout.t75 vdd sky130_fd_pr__pfet_01v8_lvt ad=0p pd=0u as=0p ps=0u w=2e+06u l=1e+06u
X154 w_785_n5483.t50 vp.t10 a_1925_n7495.t11 w_785_n5483# sky130_fd_pr__pfet_01v8_lvt ad=0p pd=0u as=0p ps=0u w=4e+06u l=1e+06u
X155 vdd.t28 vbias.t94 w_785_n5483.t27 vdd sky130_fd_pr__pfet_01v8_lvt ad=0p pd=0u as=0p ps=0u w=2e+06u l=1e+06u
X156 a_1925_n7495.t21 a_981_n7583.t57 vss.t71 vss sky130_fd_pr__nfet_01v8_lvt ad=0p pd=0u as=0p ps=0u w=1e+06u l=1e+06u
X157 vout.t74 vbias.t95 vdd.t27 vdd sky130_fd_pr__pfet_01v8_lvt ad=0p pd=0u as=0p ps=0u w=2e+06u l=1e+06u
X158 vout.t73 vbias.t96 vdd.t26 vdd sky130_fd_pr__pfet_01v8_lvt ad=0p pd=0u as=0p ps=0u w=2e+06u l=1e+06u
X159 vout.t110 a_1925_n7495.t76 vss.t93 vss sky130_fd_pr__nfet_01v8_lvt ad=0p pd=0u as=0p ps=0u w=1e+06u l=1e+06u
X160 vss.t12 a_1925_n7495.t77 vout.t12 vss sky130_fd_pr__nfet_01v8_lvt ad=0p pd=0u as=0p ps=0u w=1e+06u l=1e+06u
X161 vss.t4 a_1925_n7495.t78 vout.t4 vss sky130_fd_pr__nfet_01v8_lvt ad=0p pd=0u as=0p ps=0u w=1e+06u l=1e+06u
X162 vss.t44 a_1925_n7495.t79 vout.t45 vss sky130_fd_pr__nfet_01v8_lvt ad=0p pd=0u as=0p ps=0u w=1e+06u l=1e+06u
X163 w_785_n5483.t26 vbias.t97 vdd.t25 vdd sky130_fd_pr__pfet_01v8_lvt ad=0p pd=0u as=0p ps=0u w=2e+06u l=1e+06u
X164 a_6115_n3891# vout sky130_fd_pr__cap_mim_m3_1 l=1.4e+07u w=1.4e+07u
X165 vdd.t24 vbias.t22 vbias.t23 vdd sky130_fd_pr__pfet_01v8_lvt ad=0p pd=0u as=0p ps=0u w=2e+06u l=1e+06u
X166 a_1925_n7495.t10 vp.t11 w_785_n5483.t49 w_785_n5483# sky130_fd_pr__pfet_01v8_lvt ad=0p pd=0u as=0p ps=0u w=4e+06u l=1e+06u
X167 vout.t37 a_1925_n7495.t80 vss.t37 vss sky130_fd_pr__nfet_01v8_lvt ad=0p pd=0u as=0p ps=0u w=1e+06u l=1e+06u
X168 vout.t106 a_1925_n7495.t81 vss.t57 vss sky130_fd_pr__nfet_01v8_lvt ad=0p pd=0u as=0p ps=0u w=1e+06u l=1e+06u
X169 vout.t72 vbias.t98 vdd.t23 vdd sky130_fd_pr__pfet_01v8_lvt ad=0p pd=0u as=0p ps=0u w=2e+06u l=1e+06u
X170 vdd.t22 vbias.t99 vout.t71 vdd sky130_fd_pr__pfet_01v8_lvt ad=0p pd=0u as=0p ps=0u w=2e+06u l=1e+06u
X171 vbias.t9 vbias.t8 vdd.t21 vdd sky130_fd_pr__pfet_01v8_lvt ad=0p pd=0u as=0p ps=0u w=2e+06u l=1e+06u
X172 vdd.t20 vbias.t100 vout.t70 vdd sky130_fd_pr__pfet_01v8_lvt ad=0p pd=0u as=0p ps=0u w=2e+06u l=1e+06u
X173 vss.t95 a_1925_n7495.t82 vout.t112 vss sky130_fd_pr__nfet_01v8_lvt ad=0p pd=0u as=0p ps=0u w=1e+06u l=1e+06u
X174 vss.t19 a_1925_n7495.t83 vout.t19 vss sky130_fd_pr__nfet_01v8_lvt ad=0p pd=0u as=0p ps=0u w=1e+06u l=1e+06u
X175 a_1925_n7495.t20 a_981_n7583.t58 vss.t70 vss sky130_fd_pr__nfet_01v8_lvt ad=0p pd=0u as=0p ps=0u w=1e+06u l=1e+06u
X176 a_1925_n7495.t19 a_981_n7583.t59 vss.t69 vss sky130_fd_pr__nfet_01v8_lvt ad=0p pd=0u as=0p ps=0u w=1e+06u l=1e+06u
X177 vdd.t19 vbias.t101 w_785_n5483.t25 vdd sky130_fd_pr__pfet_01v8_lvt ad=0p pd=0u as=0p ps=0u w=2e+06u l=1e+06u
X178 w_785_n5483.t8 vn.t12 a_981_n7583.t1 w_785_n5483# sky130_fd_pr__pfet_01v8_lvt ad=0p pd=0u as=0p ps=0u w=4e+06u l=1e+06u
X179 vbias.t35 vbias.t34 vdd.t18 vdd sky130_fd_pr__pfet_01v8_lvt ad=0p pd=0u as=0p ps=0u w=2e+06u l=1e+06u
X180 a_1925_n7495.t9 vp.t12 w_785_n5483.t48 w_785_n5483# sky130_fd_pr__pfet_01v8_lvt ad=0p pd=0u as=0p ps=0u w=4e+06u l=1e+06u
X181 vout.t69 vbias.t102 vdd.t17 vdd sky130_fd_pr__pfet_01v8_lvt ad=0p pd=0u as=0p ps=0u w=2e+06u l=1e+06u
X182 a_981_n7583.t8 vn.t13 w_785_n5483.t7 w_785_n5483# sky130_fd_pr__pfet_01v8_lvt ad=0p pd=0u as=0p ps=0u w=4e+06u l=1e+06u
X183 vdd.t16 vbias.t103 vout.t68 vdd sky130_fd_pr__pfet_01v8_lvt ad=0p pd=0u as=0p ps=0u w=2e+06u l=1e+06u
X184 vout.t1 a_1925_n7495.t84 vss.t1 vss sky130_fd_pr__nfet_01v8_lvt ad=0p pd=0u as=0p ps=0u w=1e+06u l=1e+06u
X185 vout.t107 a_1925_n7495.t85 vss.t58 vss sky130_fd_pr__nfet_01v8_lvt ad=0p pd=0u as=0p ps=0u w=1e+06u l=1e+06u
X186 vss.t68 a_981_n7583.t40 a_981_n7583.t41 vss sky130_fd_pr__nfet_01v8_lvt ad=0p pd=0u as=0p ps=0u w=1e+06u l=1e+06u
X187 a_1925_n7495.t18 a_981_n7583.t60 vss.t67 vss sky130_fd_pr__nfet_01v8_lvt ad=0p pd=0u as=0p ps=0u w=1e+06u l=1e+06u
X188 a_981_n7583.t17 a_981_n7583.t16 vss.t66 vss sky130_fd_pr__nfet_01v8_lvt ad=0p pd=0u as=0p ps=0u w=1e+06u l=1e+06u
X189 a_1925_n7495.t17 a_981_n7583.t61 vss.t65 vss sky130_fd_pr__nfet_01v8_lvt ad=0p pd=0u as=0p ps=0u w=1e+06u l=1e+06u
X190 vss.t11 a_1925_n7495.t86 vout.t11 vss sky130_fd_pr__nfet_01v8_lvt ad=0p pd=0u as=0p ps=0u w=1e+06u l=1e+06u
X191 vss.t3 a_1925_n7495.t87 vout.t3 vss sky130_fd_pr__nfet_01v8_lvt ad=0p pd=0u as=0p ps=0u w=1e+06u l=1e+06u
X192 w_785_n5483.t47 vp.t13 a_1925_n7495.t8 w_785_n5483# sky130_fd_pr__pfet_01v8_lvt ad=0p pd=0u as=0p ps=0u w=4e+06u l=1e+06u
X193 vss.t64 a_981_n7583.t62 a_1925_n7495.t16 vss sky130_fd_pr__nfet_01v8_lvt ad=0p pd=0u as=0p ps=0u w=1e+06u l=1e+06u
X194 vss.t43 a_1925_n7495.t88 vout.t44 vss sky130_fd_pr__nfet_01v8_lvt ad=0p pd=0u as=0p ps=0u w=1e+06u l=1e+06u
X195 vout.t67 vbias.t104 vdd.t15 vdd sky130_fd_pr__pfet_01v8_lvt ad=0p pd=0u as=0p ps=0u w=2e+06u l=1e+06u
X196 w_785_n5483.t24 vbias.t105 vdd.t14 vdd sky130_fd_pr__pfet_01v8_lvt ad=0p pd=0u as=0p ps=0u w=2e+06u l=1e+06u
X197 vdd.t13 vbias.t106 w_785_n5483.t23 vdd sky130_fd_pr__pfet_01v8_lvt ad=0p pd=0u as=0p ps=0u w=2e+06u l=1e+06u
X198 vout.t33 a_1925_n7495.t89 vss.t33 vss sky130_fd_pr__nfet_01v8_lvt ad=0p pd=0u as=0p ps=0u w=1e+06u l=1e+06u
X199 vout.t109 a_1925_n7495.t90 vss.t60 vss sky130_fd_pr__nfet_01v8_lvt ad=0p pd=0u as=0p ps=0u w=1e+06u l=1e+06u
X200 vout.t18 a_1925_n7495.t91 vss.t18 vss sky130_fd_pr__nfet_01v8_lvt ad=0p pd=0u as=0p ps=0u w=1e+06u l=1e+06u
X201 vss.t63 a_981_n7583.t63 a_1925_n7495.t15 vss sky130_fd_pr__nfet_01v8_lvt ad=0p pd=0u as=0p ps=0u w=1e+06u l=1e+06u
X202 vout.t66 vbias.t107 vdd.t12 vdd sky130_fd_pr__pfet_01v8_lvt ad=0p pd=0u as=0p ps=0u w=2e+06u l=1e+06u
X203 vout.t104 a_1925_n7495.t92 vss.t55 vss sky130_fd_pr__nfet_01v8_lvt ad=0p pd=0u as=0p ps=0u w=1e+06u l=1e+06u
X204 vout.t65 vbias.t108 vdd.t11 vdd sky130_fd_pr__pfet_01v8_lvt ad=0p pd=0u as=0p ps=0u w=2e+06u l=1e+06u
X205 vss.t32 a_1925_n7495.t93 vout.t32 vss sky130_fd_pr__nfet_01v8_lvt ad=0p pd=0u as=0p ps=0u w=1e+06u l=1e+06u
X206 vss.t20 a_1925_n7495.t94 vout.t20 vss sky130_fd_pr__nfet_01v8_lvt ad=0p pd=0u as=0p ps=0u w=1e+06u l=1e+06u
X207 vout.t64 vbias.t109 vdd.t10 vdd sky130_fd_pr__pfet_01v8_lvt ad=0p pd=0u as=0p ps=0u w=2e+06u l=1e+06u
X208 w_785_n5483.t53 vp.t14 a_1925_n7495.t14 w_785_n5483# sky130_fd_pr__pfet_01v8_lvt ad=0p pd=0u as=0p ps=0u w=4e+06u l=1e+06u
X209 a_981_n7583.t45 a_981_n7583.t44 vss.t62 vss sky130_fd_pr__nfet_01v8_lvt ad=0p pd=0u as=0p ps=0u w=1e+06u l=1e+06u
X210 vout.t63 vbias.t110 vdd.t9 vdd sky130_fd_pr__pfet_01v8_lvt ad=0p pd=0u as=0p ps=0u w=2e+06u l=1e+06u
X211 vdd.t8 vbias.t111 vout.t62 vdd sky130_fd_pr__pfet_01v8_lvt ad=0p pd=0u as=0p ps=0u w=2e+06u l=1e+06u
X212 vdd.t7 vbias.t112 vout.t61 vdd sky130_fd_pr__pfet_01v8_lvt ad=0p pd=0u as=0p ps=0u w=2e+06u l=1e+06u
X213 a_1925_n7495.t13 vp.t15 w_785_n5483.t52 w_785_n5483# sky130_fd_pr__pfet_01v8_lvt ad=0p pd=0u as=0p ps=0u w=4e+06u l=1e+06u
X214 w_785_n5483.t6 vn.t14 a_981_n7583.t12 w_785_n5483# sky130_fd_pr__pfet_01v8_lvt ad=0p pd=0u as=0p ps=0u w=4e+06u l=1e+06u
X215 vdd.t6 vbias.t113 w_785_n5483.t22 vdd sky130_fd_pr__pfet_01v8_lvt ad=0p pd=0u as=0p ps=0u w=2e+06u l=1e+06u
X216 vdd.t5 vbias.t114 vout.t60 vdd sky130_fd_pr__pfet_01v8_lvt ad=0p pd=0u as=0p ps=0u w=2e+06u l=1e+06u
X217 vdd.t4 vbias.t115 vout.t59 vdd sky130_fd_pr__pfet_01v8_lvt ad=0p pd=0u as=0p ps=0u w=2e+06u l=1e+06u
X218 vss.t61 a_981_n7583.t34 a_981_n7583.t35 vss sky130_fd_pr__nfet_01v8_lvt ad=0p pd=0u as=0p ps=0u w=1e+06u l=1e+06u
X219 vdd.t3 vbias.t116 vout.t58 vdd sky130_fd_pr__pfet_01v8_lvt ad=0p pd=0u as=0p ps=0u w=2e+06u l=1e+06u
X220 a_981_n7583.t2 vn.t15 w_785_n5483.t5 w_785_n5483# sky130_fd_pr__pfet_01v8_lvt ad=0p pd=0u as=0p ps=0u w=4e+06u l=1e+06u
X221 vout.t38 a_1925_n7495.t95 vss.t38 vss sky130_fd_pr__nfet_01v8_lvt ad=0p pd=0u as=0p ps=0u w=1e+06u l=1e+06u
X222 vout.t55 a_1925_n7495.t96 vss.t54 vss sky130_fd_pr__nfet_01v8_lvt ad=0p pd=0u as=0p ps=0u w=1e+06u l=1e+06u
X223 vdd.t2 vbias.t117 w_785_n5483.t21 vdd sky130_fd_pr__pfet_01v8_lvt ad=0p pd=0u as=0p ps=0u w=2e+06u l=1e+06u
X224 vdd.t1 vbias.t118 vout.t57 vdd sky130_fd_pr__pfet_01v8_lvt ad=0p pd=0u as=0p ps=0u w=2e+06u l=1e+06u
X225 vout.t56 vbias.t119 vdd.t0 vdd sky130_fd_pr__pfet_01v8_lvt ad=0p pd=0u as=0p ps=0u w=2e+06u l=1e+06u
C0 vdd vbias 34.89fF
C1 vdd vout 13.17fF
C2 vbias vout 9.70fF
C3 vn vp 1.91fF
C4 a_6115_n3891# vout 19.56fF
R0 vbias.n128 vbias.t22 63.632
R1 vbias.n195 vbias.t16 63.63
R2 vbias.n87 vbias.t46 63.63
R3 vbias.n194 vbias.t51 63.63
R4 vbias.n19 vbias.t110 63.63
R5 vbias.n105 vbias.t72 63.63
R6 vbias.n105 vbias.t92 63.63
R7 vbias.n20 vbias.t50 63.63
R8 vbias.n106 vbias.t114 63.63
R9 vbias.n106 vbias.t65 63.63
R10 vbias.n18 vbias.t88 63.63
R11 vbias.n104 vbias.t115 63.63
R12 vbias.n104 vbias.t78 63.63
R13 vbias.n21 vbias.t95 63.63
R14 vbias.n107 vbias.t96 63.63
R15 vbias.n107 vbias.t61 63.63
R16 vbias.n23 vbias.t102 63.63
R17 vbias.n109 vbias.t109 63.63
R18 vbias.n109 vbias.t73 63.63
R19 vbias.n24 vbias.t59 63.63
R20 vbias.n110 vbias.t67 63.63
R21 vbias.n110 vbias.t86 63.63
R22 vbias.n22 vbias.t99 63.63
R23 vbias.n108 vbias.t68 63.63
R24 vbias.n108 vbias.t100 63.63
R25 vbias.n25 vbias.t79 63.63
R26 vbias.n111 vbias.t104 63.63
R27 vbias.n111 vbias.t108 63.63
R28 vbias.n27 vbias.t107 63.63
R29 vbias.n113 vbias.t74 63.63
R30 vbias.n113 vbias.t82 63.63
R31 vbias.n28 vbias.t64 63.63
R32 vbias.n114 vbias.t112 63.63
R33 vbias.n114 vbias.t103 63.63
R34 vbias.n26 vbias.t87 63.63
R35 vbias.n112 vbias.t118 63.63
R36 vbias.n112 vbias.t66 63.63
R37 vbias.n29 vbias.t83 63.63
R38 vbias.n115 vbias.t70 63.63
R39 vbias.n115 vbias.t56 63.63
R40 vbias.n31 vbias.t98 63.63
R41 vbias.n117 vbias.t52 63.63
R42 vbias.n117 vbias.t119 63.63
R43 vbias.n32 vbias.t71 63.63
R44 vbias.n118 vbias.t75 63.63
R45 vbias.n118 vbias.t116 63.63
R46 vbias.n30 vbias.t89 63.63
R47 vbias.n116 vbias.t111 63.63
R48 vbias.n116 vbias.t93 63.63
R49 vbias.n63 vbias.t62 63.63
R50 vbias.n126 vbias.t54 63.63
R51 vbias.n126 vbias.t80 63.63
R52 vbias.n159 vbias.t14 63.63
R53 vbias.n159 vbias.t0 63.63
R54 vbias.n77 vbias.t6 63.63
R55 vbias.n64 vbias.t44 63.63
R56 vbias.n103 vbias.t30 63.63
R57 vbias.n62 vbias.t53 63.63
R58 vbias.n125 vbias.t113 63.63
R59 vbias.n125 vbias.t60 63.63
R60 vbias.n33 vbias.t77 63.63
R61 vbias.n119 vbias.t48 63.63
R62 vbias.n119 vbias.t84 63.63
R63 vbias.n123 vbias.t2 63.63
R64 vbias.n35 vbias.t26 63.63
R65 vbias.n123 vbias.t32 63.63
R66 vbias.n78 vbias.t106 63.63
R67 vbias.n161 vbias.t91 63.63
R68 vbias.n161 vbias.t90 63.63
R69 vbias.n83 vbias.t117 63.63
R70 vbias.n188 vbias.t57 63.63
R71 vbias.n188 vbias.t101 63.63
R72 vbias.n189 vbias.t76 63.63
R73 vbias.n190 vbias.t24 63.63
R74 vbias.n192 vbias.t42 63.63
R75 vbias.n192 vbias.t12 63.63
R76 vbias.n85 vbias.t40 63.63
R77 vbias.n190 vbias.t4 63.63
R78 vbias.n163 vbias.t36 63.63
R79 vbias.n80 vbias.t10 63.63
R80 vbias.n82 vbias.t20 63.63
R81 vbias.n186 vbias.t8 63.63
R82 vbias.n163 vbias.t38 63.63
R83 vbias.n186 vbias.t34 63.63
R84 vbias.n79 vbias.t63 63.63
R85 vbias.n162 vbias.t49 63.63
R86 vbias.n162 vbias.t105 63.63
R87 vbias.n90 vbias.t81 63.63
R88 vbias.n193 vbias.t58 63.63
R89 vbias.n193 vbias.t94 63.63
R90 vbias.n194 vbias.t85 63.63
R91 vbias.n189 vbias.t97 63.63
R92 vbias.n84 vbias.t55 63.63
R93 vbias.n91 vbias.t18 63.63
R94 vbias.n89 vbias.t69 63.63
R95 vbias.n195 vbias.t28 63.63
R96 vbias.n0 vbias.t17 14.295
R97 vbias.n9 vbias.t47 14.295
R98 vbias.n156 vbias.t15 14.295
R99 vbias.n156 vbias.t23 14.295
R100 vbias.n132 vbias.t31 14.295
R101 vbias.n132 vbias.t1 14.295
R102 vbias.n74 vbias.t45 14.295
R103 vbias.n74 vbias.t7 14.295
R104 vbias.n134 vbias.t3 14.295
R105 vbias.n53 vbias.t27 14.295
R106 vbias.n56 vbias.t33 14.295
R107 vbias.n101 vbias.t43 14.295
R108 vbias.n101 vbias.t25 14.295
R109 vbias.n94 vbias.t5 14.295
R110 vbias.n94 vbias.t13 14.295
R111 vbias.n17 vbias.t41 14.295
R112 vbias.n17 vbias.t19 14.295
R113 vbias.n183 vbias.t39 14.295
R114 vbias.n183 vbias.t35 14.295
R115 vbias.n173 vbias.t37 14.295
R116 vbias.n173 vbias.t9 14.295
R117 vbias.n171 vbias.t21 14.295
R118 vbias.n171 vbias.t11 14.295
R119 vbias.n3 vbias.t29 14.295
R120 vbias.n196 vbias.n0 3.25
R121 vbias.n196 vbias.n3 1.139
R122 vbias.n3 vbias.n2 0.874
R123 vbias.n10 vbias.n9 0.87
R124 vbias.n53 vbias.n52 0.823
R125 vbias.n150 vbias.n134 0.823
R126 vbias.n54 vbias.n53 0.594
R127 vbias.n57 vbias.n56 0.58
R128 vbias.n13 vbias.n12 0.577
R129 vbias.n37 vbias.n36 0.575
R130 vbias.n38 vbias.n37 0.575
R131 vbias.n39 vbias.n38 0.575
R132 vbias.n41 vbias.n40 0.575
R133 vbias.n42 vbias.n41 0.575
R134 vbias.n40 vbias.n39 0.575
R135 vbias.n43 vbias.n42 0.575
R136 vbias.n45 vbias.n44 0.575
R137 vbias.n46 vbias.n45 0.575