* NGSPICE file created from OTA_tri_post.ext - technology: sky130A

.subckt OTA_tri_post vdd vp vn vbias vss vout
X0 a_19914_13542.t11 vp.t0 a_23358_8312.t12 vdd sky130_fd_pr__pfet_01v8_lvt ad=0p pd=0u as=0p ps=0u w=4e+06u l=350000u
X1 vss.t79 a_19914_13542.t17 vout.t4 vss sky130_fd_pr__nfet_01v8_lvt ad=0p pd=0u as=0p ps=0u w=3e+06u l=350000u
X2 vout.t3 a_19914_13542.t18 vss.t78 vss sky130_fd_pr__nfet_01v8_lvt ad=0p pd=0u as=0p ps=0u w=3e+06u l=350000u
X3 vout.t2 a_19914_13542.t19 vss.t77 vss sky130_fd_pr__nfet_01v8_lvt ad=0p pd=0u as=0p ps=0u w=3e+06u l=350000u
X4 a_23732_3846.t11 vn.t0 a_23358_8312.t20 vdd sky130_fd_pr__pfet_01v8_lvt ad=0p pd=0u as=0p ps=0u w=4e+06u l=350000u
X5 vout.t44 a_19914_13542.t20 vss.t76 vss sky130_fd_pr__nfet_01v8_lvt ad=0p pd=0u as=0p ps=0u w=3e+06u l=350000u
X6 vdd.t56 vbias.t24 vout.t122 vdd sky130_fd_pr__pfet_01v8_lvt ad=0p pd=0u as=0p ps=0u w=4e+06u l=2e+06u
X7 vout.t121 vbias.t25 vdd.t55 vdd sky130_fd_pr__pfet_01v8_lvt ad=0p pd=0u as=0p ps=0u w=4e+06u l=2e+06u
X8 vdd.t59 vbias.t26 vout.t124 vdd sky130_fd_pr__pfet_01v8_lvt ad=0p pd=0u as=0p ps=0u w=4e+06u l=2e+06u
X9 vout.t126 vbias.t27 vdd.t61 vdd sky130_fd_pr__pfet_01v8_lvt ad=0p pd=0u as=0p ps=0u w=4e+06u l=2e+06u
X10 vout.t123 vbias.t28 vdd.t58 vdd sky130_fd_pr__pfet_01v8_lvt ad=0p pd=0u as=0p ps=0u w=4e+06u l=2e+06u
X11 vdd.t60 vbias.t29 vout.t125 vdd sky130_fd_pr__pfet_01v8_lvt ad=0p pd=0u as=0p ps=0u w=4e+06u l=2e+06u
X12 vout.t43 a_19914_13542.t21 vss.t75 vss sky130_fd_pr__nfet_01v8_lvt ad=0p pd=0u as=0p ps=0u w=3e+06u l=350000u
X13 vout.t42 a_19914_13542.t22 vss.t74 vss sky130_fd_pr__nfet_01v8_lvt ad=0p pd=0u as=0p ps=0u w=3e+06u l=350000u
X14 a_23358_8312.t22 vbias.t30 vdd.t57 vdd sky130_fd_pr__pfet_01v8_lvt ad=0p pd=0u as=0p ps=0u w=4e+06u l=2e+06u
X15 a_23358_8312.t11 vp.t1 a_19914_13542.t10 vdd sky130_fd_pr__pfet_01v8_lvt ad=0p pd=0u as=0p ps=0u w=4e+06u l=350000u
X16 vout.t118 vbias.t31 vdd.t50 vdd sky130_fd_pr__pfet_01v8_lvt ad=0p pd=0u as=0p ps=0u w=4e+06u l=2e+06u
X17 vdd.t37 vbias.t32 vout.t106 vdd sky130_fd_pr__pfet_01v8_lvt ad=0p pd=0u as=0p ps=0u w=4e+06u l=2e+06u
X18 vout.t129 vbias.t33 vdd.t64 vdd sky130_fd_pr__pfet_01v8_lvt ad=0p pd=0u as=0p ps=0u w=4e+06u l=2e+06u
X19 vout.t41 a_19914_13542.t23 vss.t73 vss sky130_fd_pr__nfet_01v8_lvt ad=0p pd=0u as=0p ps=0u w=3e+06u l=350000u
X20 vout.t130 vbias.t34 vdd.t65 vdd sky130_fd_pr__pfet_01v8_lvt ad=0p pd=0u as=0p ps=0u w=4e+06u l=2e+06u
X21 vout.t131 vbias.t35 vdd.t66 vdd sky130_fd_pr__pfet_01v8_lvt ad=0p pd=0u as=0p ps=0u w=4e+06u l=2e+06u
X22 vdd.t53 vbias.t22 vbias.t23 vdd sky130_fd_pr__pfet_01v8_lvt ad=0p pd=0u as=0p ps=0u w=4e+06u l=2e+06u
X23 a_23358_8312.t21 vn.t1 a_23732_3846.t10 vdd sky130_fd_pr__pfet_01v8_lvt ad=0p pd=0u as=0p ps=0u w=4e+06u l=350000u
X24 vout.t40 a_19914_13542.t24 vss.t72 vss sky130_fd_pr__nfet_01v8_lvt ad=0p pd=0u as=0p ps=0u w=3e+06u l=350000u
X25 vout.t133 vbias.t36 vdd.t68 vdd sky130_fd_pr__pfet_01v8_lvt ad=0p pd=0u as=0p ps=0u w=4e+06u l=2e+06u
X26 a_23358_8312.t10 vp.t2 a_19914_13542.t9 vdd sky130_fd_pr__pfet_01v8_lvt ad=0p pd=0u as=0p ps=0u w=4e+06u l=350000u
X27 vdd.t69 vbias.t37 vout.t134 vdd sky130_fd_pr__pfet_01v8_lvt ad=0p pd=0u as=0p ps=0u w=4e+06u l=2e+06u
X28 vout.t39 a_19914_13542.t25 vss.t71 vss sky130_fd_pr__nfet_01v8_lvt ad=0p pd=0u as=0p ps=0u w=3e+06u l=350000u
X29 vout.t137 vbias.t38 vdd.t72 vdd sky130_fd_pr__pfet_01v8_lvt ad=0p pd=0u as=0p ps=0u w=4e+06u l=2e+06u
X30 vout.t136 vbias.t39 vdd.t71 vdd sky130_fd_pr__pfet_01v8_lvt ad=0p pd=0u as=0p ps=0u w=4e+06u l=2e+06u
X31 vdd.t36 vbias.t40 a_23358_8312.t19 vdd sky130_fd_pr__pfet_01v8_lvt ad=0p pd=0u as=0p ps=0u w=4e+06u l=2e+06u
X32 vdd.t48 vbias.t20 vbias.t21 vdd sky130_fd_pr__pfet_01v8_lvt ad=0p pd=0u as=0p ps=0u w=4e+06u l=2e+06u
X33 vout.t138 vbias.t41 vdd.t73 vdd sky130_fd_pr__pfet_01v8_lvt ad=0p pd=0u as=0p ps=0u w=4e+06u l=2e+06u
X34 vout.t132 vbias.t42 vdd.t67 vdd sky130_fd_pr__pfet_01v8_lvt ad=0p pd=0u as=0p ps=0u w=4e+06u l=2e+06u
X35 vdd.t77 vbias.t43 vout.t142 vdd sky130_fd_pr__pfet_01v8_lvt ad=0p pd=0u as=0p ps=0u w=4e+06u l=2e+06u
X36 vout.t143 vbias.t44 vdd.t78 vdd sky130_fd_pr__pfet_01v8_lvt ad=0p pd=0u as=0p ps=0u w=4e+06u l=2e+06u
X37 vdd.t79 vbias.t45 vout.t144 vdd sky130_fd_pr__pfet_01v8_lvt ad=0p pd=0u as=0p ps=0u w=4e+06u l=2e+06u
X38 vout.t38 a_19914_13542.t26 vss.t70 vss sky130_fd_pr__nfet_01v8_lvt ad=0p pd=0u as=0p ps=0u w=3e+06u l=350000u
X39 a_23732_3846.t19 a_23732_3846.t18 vss.t86 vss sky130_fd_pr__nfet_01v8_lvt ad=0p pd=0u as=0p ps=0u w=3e+06u l=350000u
X40 vout.t146 vbias.t46 vdd.t81 vdd sky130_fd_pr__pfet_01v8_lvt ad=0p pd=0u as=0p ps=0u w=4e+06u l=2e+06u
X41 vdd.t49 vbias.t47 vout.t117 vdd sky130_fd_pr__pfet_01v8_lvt ad=0p pd=0u as=0p ps=0u w=4e+06u l=2e+06u
X42 a_23732_3846.t9 vn.t2 a_23358_8312.t25 vdd sky130_fd_pr__pfet_01v8_lvt ad=0p pd=0u as=0p ps=0u w=4e+06u l=350000u
X43 vout.t119 vbias.t48 vdd.t51 vdd sky130_fd_pr__pfet_01v8_lvt ad=0p pd=0u as=0p ps=0u w=4e+06u l=2e+06u
X44 vout.t37 a_19914_13542.t27 vss.t69 vss sky130_fd_pr__nfet_01v8_lvt ad=0p pd=0u as=0p ps=0u w=3e+06u l=350000u
X45 vout.t36 a_19914_13542.t28 vss.t68 vss sky130_fd_pr__nfet_01v8_lvt ad=0p pd=0u as=0p ps=0u w=3e+06u l=350000u
X46 vdd.t83 vbias.t49 vout.t148 vdd sky130_fd_pr__pfet_01v8_lvt ad=0p pd=0u as=0p ps=0u w=4e+06u l=2e+06u
X47 vout.t154 vbias.t50 vdd.t89 vdd sky130_fd_pr__pfet_01v8_lvt ad=0p pd=0u as=0p ps=0u w=4e+06u l=2e+06u
X48 a_23358_8312.t24 vbias.t51 vdd.t90 vdd sky130_fd_pr__pfet_01v8_lvt ad=0p pd=0u as=0p ps=0u w=4e+06u l=2e+06u
X49 vdd.t92 vbias.t52 vout.t156 vdd sky130_fd_pr__pfet_01v8_lvt ad=0p pd=0u as=0p ps=0u w=4e+06u l=2e+06u
X50 vout.t35 a_19914_13542.t29 vss.t67 vss sky130_fd_pr__nfet_01v8_lvt ad=0p pd=0u as=0p ps=0u w=3e+06u l=350000u
X51 a_19914_13542.t8 vp.t3 a_23358_8312.t9 vdd sky130_fd_pr__pfet_01v8_lvt ad=0p pd=0u as=0p ps=0u w=4e+06u l=350000u
X52 vout.t34 a_19914_13542.t30 vss.t66 vss sky130_fd_pr__nfet_01v8_lvt ad=0p pd=0u as=0p ps=0u w=3e+06u l=350000u
X53 vout.t155 vbias.t53 vdd.t91 vdd sky130_fd_pr__pfet_01v8_lvt ad=0p pd=0u as=0p ps=0u w=4e+06u l=2e+06u
X54 vdd.t93 vbias.t54 vout.t157 vdd sky130_fd_pr__pfet_01v8_lvt ad=0p pd=0u as=0p ps=0u w=4e+06u l=2e+06u
X55 vss.t65 a_19914_13542.t31 vout.t33 vss sky130_fd_pr__nfet_01v8_lvt ad=0p pd=0u as=0p ps=0u w=3e+06u l=350000u
X56 vout.t32 a_19914_13542.t32 vss.t64 vss sky130_fd_pr__nfet_01v8_lvt ad=0p pd=0u as=0p ps=0u w=3e+06u l=350000u
X57 vdd.t54 vbias.t55 vout.t120 vdd sky130_fd_pr__pfet_01v8_lvt ad=0p pd=0u as=0p ps=0u w=4e+06u l=2e+06u
X58 a_23358_8312.t27 vbias.t56 vdd.t94 vdd sky130_fd_pr__pfet_01v8_lvt ad=0p pd=0u as=0p ps=0u w=4e+06u l=2e+06u
X59 vout.t31 a_19914_13542.t33 vss.t63 vss sky130_fd_pr__nfet_01v8_lvt ad=0p pd=0u as=0p ps=0u w=3e+06u l=350000u
X60 a_23358_8312.t23 vn.t3 a_23732_3846.t8 vdd sky130_fd_pr__pfet_01v8_lvt ad=0p pd=0u as=0p ps=0u w=4e+06u l=350000u
X61 vout.t30 a_19914_13542.t34 vss.t62 vss sky130_fd_pr__nfet_01v8_lvt ad=0p pd=0u as=0p ps=0u w=3e+06u l=350000u
X62 vdd.t98 vbias.t57 a_23358_8312.t28 vdd sky130_fd_pr__pfet_01v8_lvt ad=0p pd=0u as=0p ps=0u w=4e+06u l=2e+06u
X64 vss.t61 a_19914_13542.t35 vout.t29 vss sky130_fd_pr__nfet_01v8_lvt ad=0p pd=0u as=0p ps=0u w=3e+06u l=350000u
X65 vss.t60 a_19914_13542.t36 vout.t28 vss sky130_fd_pr__nfet_01v8_lvt ad=0p pd=0u as=0p ps=0u w=3e+06u l=350000u
X66 vout.t27 a_19914_13542.t37 vss.t59 vss sky130_fd_pr__nfet_01v8_lvt ad=0p pd=0u as=0p ps=0u w=3e+06u l=350000u
X67 a_19914_13542.t13 a_23732_3846.t20 vss.t83 vss sky130_fd_pr__nfet_01v8_lvt ad=0p pd=0u as=0p ps=0u w=3e+06u l=350000u
X68 vout.t26 a_19914_13542.t38 vss.t58 vss sky130_fd_pr__nfet_01v8_lvt ad=0p pd=0u as=0p ps=0u w=3e+06u l=350000u
X69 vss.t57 a_19914_13542.t39 vout.t25 vss sky130_fd_pr__nfet_01v8_lvt ad=0p pd=0u as=0p ps=0u w=3e+06u l=350000u
X70 vbias.t19 vbias.t18 vdd.t52 vdd sky130_fd_pr__pfet_01v8_lvt ad=0p pd=0u as=0p ps=0u w=4e+06u l=2e+06u
X71 vout.t147 vbias.t58 vdd.t82 vdd sky130_fd_pr__pfet_01v8_lvt ad=0p pd=0u as=0p ps=0u w=4e+06u l=2e+06u
X72 vss.t56 a_19914_13542.t40 vout.t24 vss sky130_fd_pr__nfet_01v8_lvt ad=0p pd=0u as=0p ps=0u w=3e+06u l=350000u
X73 a_19914_13542.t7 vp.t4 a_23358_8312.t8 vdd sky130_fd_pr__pfet_01v8_lvt ad=0p pd=0u as=0p ps=0u w=4e+06u l=350000u
X74 vss.t55 a_19914_13542.t41 vout.t23 vss sky130_fd_pr__nfet_01v8_lvt ad=0p pd=0u as=0p ps=0u w=3e+06u l=350000u
X75 vout.t162 vbias.t59 vdd.t100 vdd sky130_fd_pr__pfet_01v8_lvt ad=0p pd=0u as=0p ps=0u w=4e+06u l=2e+06u
X76 vout.t145 vbias.t60 vdd.t80 vdd sky130_fd_pr__pfet_01v8_lvt ad=0p pd=0u as=0p ps=0u w=4e+06u l=2e+06u
X77 vdd.t97 vbias.t61 vout.t160 vdd sky130_fd_pr__pfet_01v8_lvt ad=0p pd=0u as=0p ps=0u w=4e+06u l=2e+06u
X78 vout.t159 vbias.t62 vdd.t96 vdd sky130_fd_pr__pfet_01v8_lvt ad=0p pd=0u as=0p ps=0u w=4e+06u l=2e+06u
X79 vss.t54 a_19914_13542.t42 vout.t22 vss sky130_fd_pr__nfet_01v8_lvt ad=0p pd=0u as=0p ps=0u w=3e+06u l=350000u
X80 vout.t171 vbias.t63 vdd.t109 vdd sky130_fd_pr__pfet_01v8_lvt ad=0p pd=0u as=0p ps=0u w=4e+06u l=2e+06u
X81 vss.t53 a_19914_13542.t43 vout.t21 vss sky130_fd_pr__nfet_01v8_lvt ad=0p pd=0u as=0p ps=0u w=3e+06u l=350000u
X82 vdd.t113 vbias.t64 vout.t175 vdd sky130_fd_pr__pfet_01v8_lvt ad=0p pd=0u as=0p ps=0u w=4e+06u l=2e+06u
X83 vdd.t101 vbias.t65 vout.t163 vdd sky130_fd_pr__pfet_01v8_lvt ad=0p pd=0u as=0p ps=0u w=4e+06u l=2e+06u
X84 vss.t84 a_23732_3846.t21 a_19914_13542.t14 vss sky130_fd_pr__nfet_01v8_lvt ad=0p pd=0u as=0p ps=0u w=3e+06u l=350000u
X85 vout.t178 vbias.t66 vdd.t117 vdd sky130_fd_pr__pfet_01v8_lvt ad=0p pd=0u as=0p ps=0u w=4e+06u l=2e+06u
X86 vss.t52 a_19914_13542.t44 vout.t20 vss sky130_fd_pr__nfet_01v8_lvt ad=0p pd=0u as=0p ps=0u w=3e+06u l=350000u
X87 vout.t19 a_19914_13542.t45 vss.t51 vss sky130_fd_pr__nfet_01v8_lvt ad=0p pd=0u as=0p ps=0u w=3e+06u l=350000u
X88 vss.t50 a_19914_13542.t46 vout.t18 vss sky130_fd_pr__nfet_01v8_lvt ad=0p pd=0u as=0p ps=0u w=3e+06u l=350000u
X89 a_23732_3846.t7 vn.t4 a_23358_8312.t26 vdd sky130_fd_pr__pfet_01v8_lvt ad=0p pd=0u as=0p ps=0u w=4e+06u l=350000u
X90 vout.t141 vbias.t67 vdd.t76 vdd sky130_fd_pr__pfet_01v8_lvt ad=0p pd=0u as=0p ps=0u w=4e+06u l=2e+06u
X91 vdd.t102 vbias.t68 vout.t164 vdd sky130_fd_pr__pfet_01v8_lvt ad=0p pd=0u as=0p ps=0u w=4e+06u l=2e+06u
X92 vdd.t121 vbias.t69 vout.t181 vdd sky130_fd_pr__pfet_01v8_lvt ad=0p pd=0u as=0p ps=0u w=4e+06u l=2e+06u
X93 vout.t140 vbias.t70 vdd.t75 vdd sky130_fd_pr__pfet_01v8_lvt ad=0p pd=0u as=0p ps=0u w=4e+06u l=2e+06u
X94 vout.t165 vbias.t71 vdd.t103 vdd sky130_fd_pr__pfet_01v8_lvt ad=0p pd=0u as=0p ps=0u w=4e+06u l=2e+06u
X95 vdd.t125 vbias.t72 vout.t185 vdd sky130_fd_pr__pfet_01v8_lvt ad=0p pd=0u as=0p ps=0u w=4e+06u l=2e+06u
X96 a_23358_8312.t7 vp.t5 a_19914_13542.t6 vdd sky130_fd_pr__pfet_01v8_lvt ad=0p pd=0u as=0p ps=0u w=4e+06u l=350000u
X97 vdd.t95 vbias.t73 vout.t158 vdd sky130_fd_pr__pfet_01v8_lvt ad=0p pd=0u as=0p ps=0u w=4e+06u l=2e+06u
X98 vss.t49 a_19914_13542.t47 vout.t17 vss sky130_fd_pr__nfet_01v8_lvt ad=0p pd=0u as=0p ps=0u w=3e+06u l=350000u
X99 vdd.t129 vbias.t74 vout.t187 vdd sky130_fd_pr__pfet_01v8_lvt ad=0p pd=0u as=0p ps=0u w=4e+06u l=2e+06u
X100 vout.t161 vbias.t75 vdd.t99 vdd sky130_fd_pr__pfet_01v8_lvt ad=0p pd=0u as=0p ps=0u w=4e+06u l=2e+06u
X101 vdd.t74 vbias.t76 vout.t139 vdd sky130_fd_pr__pfet_01v8_lvt ad=0p pd=0u as=0p ps=0u w=4e+06u l=2e+06u
X102 vss.t48 a_19914_13542.t48 vout.t16 vss sky130_fd_pr__nfet_01v8_lvt ad=0p pd=0u as=0p ps=0u w=3e+06u l=350000u
X103 a_23358_8312.t29 vn.t5 a_23732_3846.t6 vdd sky130_fd_pr__pfet_01v8_lvt ad=0p pd=0u as=0p ps=0u w=4e+06u l=350000u
X104 vdd.t27 vbias.t77 vout.t105 vdd sky130_fd_pr__pfet_01v8_lvt ad=0p pd=0u as=0p ps=0u w=4e+06u l=2e+06u
X105 vout.t127 vbias.t78 vdd.t62 vdd sky130_fd_pr__pfet_01v8_lvt ad=0p pd=0u as=0p ps=0u w=4e+06u l=2e+06u
X106 vss.t47 a_19914_13542.t49 vout.t15 vss sky130_fd_pr__nfet_01v8_lvt ad=0p pd=0u as=0p ps=0u w=3e+06u l=350000u
X107 vdd.t63 vbias.t79 vout.t128 vdd sky130_fd_pr__pfet_01v8_lvt ad=0p pd=0u as=0p ps=0u w=4e+06u l=2e+06u
X108 vout.t135 vbias.t80 vdd.t70 vdd sky130_fd_pr__pfet_01v8_lvt ad=0p pd=0u as=0p ps=0u w=4e+06u l=2e+06u
X109 vss.t46 a_19914_13542.t50 vout.t14 vss sky130_fd_pr__nfet_01v8_lvt ad=0p pd=0u as=0p ps=0u w=3e+06u l=350000u
X110 vout.t13 a_19914_13542.t51 vss.t45 vss sky130_fd_pr__nfet_01v8_lvt ad=0p pd=0u as=0p ps=0u w=3e+06u l=350000u
X111 vout.t107 vbias.t81 vdd.t38 vdd sky130_fd_pr__pfet_01v8_lvt ad=0p pd=0u as=0p ps=0u w=4e+06u l=2e+06u
X112 vdd.t39 vbias.t82 vout.t108 vdd sky130_fd_pr__pfet_01v8_lvt ad=0p pd=0u as=0p ps=0u w=4e+06u l=2e+06u
X113 vdd.t40 vbias.t83 vout.t109 vdd sky130_fd_pr__pfet_01v8_lvt ad=0p pd=0u as=0p ps=0u w=4e+06u l=2e+06u
X114 vbias.t17 vbias.t16 vdd.t35 vdd sky130_fd_pr__pfet_01v8_lvt ad=0p pd=0u as=0p ps=0u w=4e+06u l=2e+06u
X115 vdd.t41 vbias.t84 vout.t110 vdd sky130_fd_pr__pfet_01v8_lvt ad=0p pd=0u as=0p ps=0u w=4e+06u l=2e+06u
X116 vdd.t42 vbias.t85 vout.t111 vdd sky130_fd_pr__pfet_01v8_lvt ad=0p pd=0u as=0p ps=0u w=4e+06u l=2e+06u
X117 vss.t80 a_23732_3846.t16 a_23732_3846.t17 vss sky130_fd_pr__nfet_01v8_lvt ad=0p pd=0u as=0p ps=0u w=3e+06u l=350000u
X118 vss.t44 a_19914_13542.t52 vout.t12 vss sky130_fd_pr__nfet_01v8_lvt ad=0p pd=0u as=0p ps=0u w=3e+06u l=350000u
X119 vout.t112 vbias.t86 vdd.t43 vdd sky130_fd_pr__pfet_01v8_lvt ad=0p pd=0u as=0p ps=0u w=4e+06u l=2e+06u
X120 a_23358_8312.t1 vp.t6 a_19914_13542.t5 vdd sky130_fd_pr__pfet_01v8_lvt ad=0p pd=0u as=0p ps=0u w=4e+06u l=350000u
X121 vss.t43 a_19914_13542.t53 vout.t11 vss sky130_fd_pr__nfet_01v8_lvt ad=0p pd=0u as=0p ps=0u w=3e+06u l=350000u
X122 vout.t113 vbias.t87 vdd.t44 vdd sky130_fd_pr__pfet_01v8_lvt ad=0p pd=0u as=0p ps=0u w=4e+06u l=2e+06u
X123 vdd.t45 vbias.t88 vout.t114 vdd sky130_fd_pr__pfet_01v8_lvt ad=0p pd=0u as=0p ps=0u w=4e+06u l=2e+06u
X124 vdd.t46 vbias.t89 vout.t115 vdd sky130_fd_pr__pfet_01v8_lvt ad=0p pd=0u as=0p ps=0u w=4e+06u l=2e+06u
X125 vout.t10 a_19914_13542.t54 vss.t42 vss sky130_fd_pr__nfet_01v8_lvt ad=0p pd=0u as=0p ps=0u w=3e+06u l=350000u
X126 vout.t116 vbias.t90 vdd.t47 vdd sky130_fd_pr__pfet_01v8_lvt ad=0p pd=0u as=0p ps=0u w=4e+06u l=2e+06u
X127 a_23732_3846.t5 vn.t6 a_23358_8312.t13 vdd sky130_fd_pr__pfet_01v8_lvt ad=0p pd=0u as=0p ps=0u w=4e+06u l=350000u
X128 vdd.t84 vbias.t91 vout.t149 vdd sky130_fd_pr__pfet_01v8_lvt ad=0p pd=0u as=0p ps=0u w=4e+06u l=2e+06u
X129 vdd.t85 vbias.t92 vout.t150 vdd sky130_fd_pr__pfet_01v8_lvt ad=0p pd=0u as=0p ps=0u w=4e+06u l=2e+06u
X130 vss.t41 a_19914_13542.t55 vout.t9 vss sky130_fd_pr__nfet_01v8_lvt ad=0p pd=0u as=0p ps=0u w=3e+06u l=350000u
X131 vss.t40 a_19914_13542.t56 vout.t8 vss sky130_fd_pr__nfet_01v8_lvt ad=0p pd=0u as=0p ps=0u w=3e+06u l=350000u
X132 vout.t68 a_19914_13542.t57 vss.t39 vss sky130_fd_pr__nfet_01v8_lvt ad=0p pd=0u as=0p ps=0u w=3e+06u l=350000u
X133 vout a_30781_4727# sky130_fd_pr__cap_mim_m3_1 l=1.5e+07u w=1.5e+07u
X134 vout.t151 vbias.t93 vdd.t86 vdd sky130_fd_pr__pfet_01v8_lvt ad=0p pd=0u as=0p ps=0u w=4e+06u l=2e+06u
X135 vdd.t87 vbias.t94 vout.t152 vdd sky130_fd_pr__pfet_01v8_lvt ad=0p pd=0u as=0p ps=0u w=4e+06u l=2e+06u
X136 vout.t167 vbias.t95 vdd.t105 vdd sky130_fd_pr__pfet_01v8_lvt ad=0p pd=0u as=0p ps=0u w=4e+06u l=2e+06u
X137 vdd.t34 vbias.t14 vbias.t15 vdd sky130_fd_pr__pfet_01v8_lvt ad=0p pd=0u as=0p ps=0u w=4e+06u l=2e+06u
X138 vout.t192 vbias.t96 vdd.t135 vdd sky130_fd_pr__pfet_01v8_lvt ad=0p pd=0u as=0p ps=0u w=4e+06u l=2e+06u
X139 vss.t38 a_19914_13542.t58 vout.t67 vss sky130_fd_pr__nfet_01v8_lvt ad=0p pd=0u as=0p ps=0u w=3e+06u l=350000u
X140 a_19914_13542.t4 vp.t7 a_23358_8312.t2 vdd sky130_fd_pr__pfet_01v8_lvt ad=0p pd=0u as=0p ps=0u w=4e+06u l=350000u
X141 vdd.t88 vbias.t97 vout.t153 vdd sky130_fd_pr__pfet_01v8_lvt ad=0p pd=0u as=0p ps=0u w=4e+06u l=2e+06u
X142 vdd.t136 vbias.t98 vout.t193 vdd sky130_fd_pr__pfet_01v8_lvt ad=0p pd=0u as=0p ps=0u w=4e+06u l=2e+06u
X143 vbias.t13 vbias.t12 vdd.t33 vdd sky130_fd_pr__pfet_01v8_lvt ad=0p pd=0u as=0p ps=0u w=4e+06u l=2e+06u
X144 a_23358_8312.t14 vn.t7 a_23732_3846.t4 vdd sky130_fd_pr__pfet_01v8_lvt ad=0p pd=0u as=0p ps=0u w=4e+06u l=350000u
X145 vdd.t137 vbias.t99 vout.t194 vdd sky130_fd_pr__pfet_01v8_lvt ad=0p pd=0u as=0p ps=0u w=4e+06u l=2e+06u
X146 vout.t195 vbias.t100 vdd.t138 vdd sky130_fd_pr__pfet_01v8_lvt ad=0p pd=0u as=0p ps=0u w=4e+06u l=2e+06u
X147 vdd.t139 vbias.t101 vout.t196 vdd sky130_fd_pr__pfet_01v8_lvt ad=0p pd=0u as=0p ps=0u w=4e+06u l=2e+06u
X148 vout.t66 a_19914_13542.t59 vss.t37 vss sky130_fd_pr__nfet_01v8_lvt ad=0p pd=0u as=0p ps=0u w=3e+06u l=350000u
X149 vss.t36 a_19914_13542.t60 vout.t65 vss sky130_fd_pr__nfet_01v8_lvt ad=0p pd=0u as=0p ps=0u w=3e+06u l=350000u
X150 vout.t64 a_19914_13542.t61 vss.t35 vss sky130_fd_pr__nfet_01v8_lvt ad=0p pd=0u as=0p ps=0u w=3e+06u l=350000u
X151 vout.t197 vbias.t102 vdd.t140 vdd sky130_fd_pr__pfet_01v8_lvt ad=0p pd=0u as=0p ps=0u w=4e+06u l=2e+06u
X152 vdd.t141 vbias.t103 vout.t198 vdd sky130_fd_pr__pfet_01v8_lvt ad=0p pd=0u as=0p ps=0u w=4e+06u l=2e+06u
X153 vdd.t108 vbias.t104 vout.t170 vdd sky130_fd_pr__pfet_01v8_lvt ad=0p pd=0u as=0p ps=0u w=4e+06u l=2e+06u
X154 vbias.t11 vbias.t10 vdd.t32 vdd sky130_fd_pr__pfet_01v8_lvt ad=0p pd=0u as=0p ps=0u w=4e+06u l=2e+06u
X155 vdd.t142 vbias.t105 vout.t199 vdd sky130_fd_pr__pfet_01v8_lvt ad=0p pd=0u as=0p ps=0u w=4e+06u l=2e+06u
X156 vout.t63 a_19914_13542.t62 vss.t34 vss sky130_fd_pr__nfet_01v8_lvt ad=0p pd=0u as=0p ps=0u w=3e+06u l=350000u
X157 vout.t62 a_19914_13542.t63 vss.t33 vss sky130_fd_pr__nfet_01v8_lvt ad=0p pd=0u as=0p ps=0u w=3e+06u l=350000u
X158 vdd.t107 vbias.t106 vout.t169 vdd sky130_fd_pr__pfet_01v8_lvt ad=0p pd=0u as=0p ps=0u w=4e+06u l=2e+06u
X159 a_23358_8312.t35 vbias.t107 vdd.t143 vdd sky130_fd_pr__pfet_01v8_lvt ad=0p pd=0u as=0p ps=0u w=4e+06u l=2e+06u
X160 vout.t168 vbias.t108 vdd.t106 vdd sky130_fd_pr__pfet_01v8_lvt ad=0p pd=0u as=0p ps=0u w=4e+06u l=2e+06u
X161 vout.t61 a_19914_13542.t64 vss.t32 vss sky130_fd_pr__nfet_01v8_lvt ad=0p pd=0u as=0p ps=0u w=3e+06u l=350000u
X162 vout.t60 a_19914_13542.t65 vss.t31 vss sky130_fd_pr__nfet_01v8_lvt ad=0p pd=0u as=0p ps=0u w=3e+06u l=350000u
X163 a_23358_8312.t0 vbias.t109 vdd.t2 vdd sky130_fd_pr__pfet_01v8_lvt ad=0p pd=0u as=0p ps=0u w=4e+06u l=2e+06u
X164 vdd.t0 vbias.t110 vout.t0 vdd sky130_fd_pr__pfet_01v8_lvt ad=0p pd=0u as=0p ps=0u w=4e+06u l=2e+06u
X165 vout.t81 vbias.t111 vdd.t3 vdd sky130_fd_pr__pfet_01v8_lvt ad=0p pd=0u as=0p ps=0u w=4e+06u l=2e+06u
X166 vbias.t9 vbias.t8 vdd.t31 vdd sky130_fd_pr__pfet_01v8_lvt ad=0p pd=0u as=0p ps=0u w=4e+06u l=2e+06u
X167 vdd.t4 vbias.t112 vout.t82 vdd sky130_fd_pr__pfet_01v8_lvt ad=0p pd=0u as=0p ps=0u w=4e+06u l=2e+06u
X168 vout.t59 a_19914_13542.t66 vss.t30 vss sky130_fd_pr__nfet_01v8_lvt ad=0p pd=0u as=0p ps=0u w=3e+06u l=350000u
X169 vdd.t5 vbias.t113 vout.t83 vdd sky130_fd_pr__pfet_01v8_lvt ad=0p pd=0u as=0p ps=0u w=4e+06u l=2e+06u
X170 vout.t84 vbias.t114 vdd.t6 vdd sky130_fd_pr__pfet_01v8_lvt ad=0p pd=0u as=0p ps=0u w=4e+06u l=2e+06u
X171 a_19914_13542.t3 vp.t8 a_23358_8312.t5 vdd sky130_fd_pr__pfet_01v8_lvt ad=0p pd=0u as=0p ps=0u w=4e+06u l=350000u
X172 vout.t85 vbias.t115 vdd.t7 vdd sky130_fd_pr__pfet_01v8_lvt ad=0p pd=0u as=0p ps=0u w=4e+06u l=2e+06u
X173 vout.t58 a_19914_13542.t67 vss.t29 vss sky130_fd_pr__nfet_01v8_lvt ad=0p pd=0u as=0p ps=0u w=3e+06u l=350000u
X174 vout.t57 a_19914_13542.t68 vss.t28 vss sky130_fd_pr__nfet_01v8_lvt ad=0p pd=0u as=0p ps=0u w=3e+06u l=350000u
X175 a_19914_13542.t12 a_30781_4727# vss sky130_fd_pr__res_xhigh_po w=350000u l=2.8e+06u
X176 vdd.t8 vbias.t116 vout.t86 vdd sky130_fd_pr__pfet_01v8_lvt ad=0p pd=0u as=0p ps=0u w=4e+06u l=2e+06u
X177 vbias.t7 vbias.t6 vdd.t30 vdd sky130_fd_pr__pfet_01v8_lvt ad=0p pd=0u as=0p ps=0u w=4e+06u l=2e+06u
X178 vdd.t9 vbias.t117 vout.t87 vdd sky130_fd_pr__pfet_01v8_lvt ad=0p pd=0u as=0p ps=0u w=4e+06u l=2e+06u
X179 vout.t88 vbias.t118 vdd.t10 vdd sky130_fd_pr__pfet_01v8_lvt ad=0p pd=0u as=0p ps=0u w=4e+06u l=2e+06u
X180 a_23732_3846.t15 a_23732_3846.t14 vss.t81 vss sky130_fd_pr__nfet_01v8_lvt ad=0p pd=0u as=0p ps=0u w=3e+06u l=350000u
X181 vout.t56 a_19914_13542.t69 vss.t27 vss sky130_fd_pr__nfet_01v8_lvt ad=0p pd=0u as=0p ps=0u w=3e+06u l=350000u
X182 vdd.t11 vbias.t119 vout.t89 vdd sky130_fd_pr__pfet_01v8_lvt ad=0p pd=0u as=0p ps=0u w=4e+06u l=2e+06u
X183 vout.t90 vbias.t120 vdd.t12 vdd sky130_fd_pr__pfet_01v8_lvt ad=0p pd=0u as=0p ps=0u w=4e+06u l=2e+06u
X184 vdd.t13 vbias.t121 vout.t91 vdd sky130_fd_pr__pfet_01v8_lvt ad=0p pd=0u as=0p ps=0u w=4e+06u l=2e+06u
X185 vout.t55 a_19914_13542.t70 vss.t26 vss sky130_fd_pr__nfet_01v8_lvt ad=0p pd=0u as=0p ps=0u w=3e+06u l=350000u
X186 vout.t46 a_19914_13542.t71 vss.t25 vss sky130_fd_pr__nfet_01v8_lvt ad=0p pd=0u as=0p ps=0u w=3e+06u l=350000u
X187 a_23732_3846.t3 vn.t8 a_23358_8312.t15 vdd sky130_fd_pr__pfet_01v8_lvt ad=0p pd=0u as=0p ps=0u w=4e+06u l=350000u
X188 a_23358_8312.t6 vp.t9 a_19914_13542.t2 vdd sky130_fd_pr__pfet_01v8_lvt ad=0p pd=0u as=0p ps=0u w=4e+06u l=350000u
X189 vout.t102 vbias.t122 vdd.t24 vdd sky130_fd_pr__pfet_01v8_lvt ad=0p pd=0u as=0p ps=0u w=4e+06u l=2e+06u
X190 vdd.t23 vbias.t123 vout.t101 vdd sky130_fd_pr__pfet_01v8_lvt ad=0p pd=0u as=0p ps=0u w=4e+06u l=2e+06u
X191 vout.t45 a_19914_13542.t72 vss.t24 vss sky130_fd_pr__nfet_01v8_lvt ad=0p pd=0u as=0p ps=0u w=3e+06u l=350000u
X192 vdd.t29 vbias.t4 vbias.t5 vdd sky130_fd_pr__pfet_01v8_lvt ad=0p pd=0u as=0p ps=0u w=4e+06u l=2e+06u
X193 vdd.t20 vbias.t124 vout.t98 vdd sky130_fd_pr__pfet_01v8_lvt ad=0p pd=0u as=0p ps=0u w=4e+06u l=2e+06u
X194 vdd.t19 vbias.t125 vout.t97 vdd sky130_fd_pr__pfet_01v8_lvt ad=0p pd=0u as=0p ps=0u w=4e+06u l=2e+06u
X195 vout.t96 vbias.t126 vdd.t18 vdd sky130_fd_pr__pfet_01v8_lvt ad=0p pd=0u as=0p ps=0u w=4e+06u l=2e+06u
X196 a_23358_8312.t16 vn.t9 a_23732_3846.t2 vdd sky130_fd_pr__pfet_01v8_lvt ad=0p pd=0u as=0p ps=0u w=4e+06u l=350000u
X197 a_19914_13542.t15 a_23732_3846.t22 vss.t85 vss sky130_fd_pr__nfet_01v8_lvt ad=0p pd=0u as=0p ps=0u w=3e+06u l=350000u
X198 a_23358_8312.t4 vp.t10 a_19914_13542.t1 vdd sky130_fd_pr__pfet_01v8_lvt ad=0p pd=0u as=0p ps=0u w=4e+06u l=350000u
X199 vout.t6 a_19914_13542.t73 vss.t23 vss sky130_fd_pr__nfet_01v8_lvt ad=0p pd=0u as=0p ps=0u w=3e+06u l=350000u
X200 vdd.t16 vbias.t127 vout.t94 vdd sky130_fd_pr__pfet_01v8_lvt ad=0p pd=0u as=0p ps=0u w=4e+06u l=2e+06u
X201 vout.t5 a_19914_13542.t74 vss.t22 vss sky130_fd_pr__nfet_01v8_lvt ad=0p pd=0u as=0p ps=0u w=3e+06u l=350000u
X202 vss.t21 a_19914_13542.t75 vout.t52 vss sky130_fd_pr__nfet_01v8_lvt ad=0p pd=0u as=0p ps=0u w=3e+06u l=350000u
X203 vout.t76 a_19914_13542.t76 vss.t20 vss sky130_fd_pr__nfet_01v8_lvt ad=0p pd=0u as=0p ps=0u w=3e+06u l=350000u
X204 vout.t93 vbias.t128 vdd.t15 vdd sky130_fd_pr__pfet_01v8_lvt ad=0p pd=0u as=0p ps=0u w=4e+06u l=2e+06u
X205 vout.t92 vbias.t129 vdd.t14 vdd sky130_fd_pr__pfet_01v8_lvt ad=0p pd=0u as=0p ps=0u w=4e+06u l=2e+06u
X206 vdd.t25 vbias.t130 vout.t103 vdd sky130_fd_pr__pfet_01v8_lvt ad=0p pd=0u as=0p ps=0u w=4e+06u l=2e+06u
X207 vout.t50 a_19914_13542.t77 vss.t19 vss sky130_fd_pr__nfet_01v8_lvt ad=0p pd=0u as=0p ps=0u w=3e+06u l=350000u
X208 vss.t18 a_19914_13542.t78 vout.t47 vss sky130_fd_pr__nfet_01v8_lvt ad=0p pd=0u as=0p ps=0u w=3e+06u l=350000u
X209 vout.t99 vbias.t131 vdd.t21 vdd sky130_fd_pr__pfet_01v8_lvt ad=0p pd=0u as=0p ps=0u w=4e+06u l=2e+06u
X210 vss.t17 a_19914_13542.t79 vout.t48 vss sky130_fd_pr__nfet_01v8_lvt ad=0p pd=0u as=0p ps=0u w=3e+06u l=350000u
X211 vss.t87 a_23732_3846.t23 a_19914_13542.t16 vss sky130_fd_pr__nfet_01v8_lvt ad=0p pd=0u as=0p ps=0u w=3e+06u l=350000u
X212 a_23732_3846.t1 vn.t10 a_23358_8312.t17 vdd sky130_fd_pr__pfet_01v8_lvt ad=0p pd=0u as=0p ps=0u w=4e+06u l=350000u
X213 vout.t100 vbias.t132 vdd.t22 vdd sky130_fd_pr__pfet_01v8_lvt ad=0p pd=0u as=0p ps=0u w=4e+06u l=2e+06u
X214 vss.t16 a_19914_13542.t80 vout.t51 vss sky130_fd_pr__nfet_01v8_lvt ad=0p pd=0u as=0p ps=0u w=3e+06u l=350000u
X215 vdd.t17 vbias.t133 vout.t95 vdd sky130_fd_pr__pfet_01v8_lvt ad=0p pd=0u as=0p ps=0u w=4e+06u l=2e+06u
X216 vss.t15 a_19914_13542.t81 vout.t7 vss sky130_fd_pr__nfet_01v8_lvt ad=0p pd=0u as=0p ps=0u w=3e+06u l=350000u
X217 vdd.t26 vbias.t134 vout.t104 vdd sky130_fd_pr__pfet_01v8_lvt ad=0p pd=0u as=0p ps=0u w=4e+06u l=2e+06u
X218 vout.t166 vbias.t135 vdd.t104 vdd sky130_fd_pr__pfet_01v8_lvt ad=0p pd=0u as=0p ps=0u w=4e+06u l=2e+06u
X219 vss.t14 a_19914_13542.t82 vout.t53 vss sky130_fd_pr__nfet_01v8_lvt ad=0p pd=0u as=0p ps=0u w=3e+06u l=350000u
X220 vss.t13 a_19914_13542.t83 vout.t77 vss sky130_fd_pr__nfet_01v8_lvt ad=0p pd=0u as=0p ps=0u w=3e+06u l=350000u
X221 vdd.t134 vbias.t136 a_23358_8312.t34 vdd sky130_fd_pr__pfet_01v8_lvt ad=0p pd=0u as=0p ps=0u w=4e+06u l=2e+06u
X222 a_19914_13542.t0 vp.t11 a_23358_8312.t3 vdd sky130_fd_pr__pfet_01v8_lvt ad=0p pd=0u as=0p ps=0u w=4e+06u l=350000u
X223 vout.t190 vbias.t137 vdd.t132 vdd sky130_fd_pr__pfet_01v8_lvt ad=0p pd=0u as=0p ps=0u w=4e+06u l=2e+06u
X224 vss.t12 a_19914_13542.t84 vout.t79 vss sky130_fd_pr__nfet_01v8_lvt ad=0p pd=0u as=0p ps=0u w=3e+06u l=350000u
X225 vout.t191 vbias.t138 vdd.t133 vdd sky130_fd_pr__pfet_01v8_lvt ad=0p pd=0u as=0p ps=0u w=4e+06u l=2e+06u
X226 vss.t11 a_19914_13542.t85 vout.t72 vss sky130_fd_pr__nfet_01v8_lvt ad=0p pd=0u as=0p ps=0u w=3e+06u l=350000u
X227 vss.t10 a_19914_13542.t86 vout.t73 vss sky130_fd_pr__nfet_01v8_lvt ad=0p pd=0u as=0p ps=0u w=3e+06u l=350000u
X228 vdd.t130 vbias.t139 vout.t188 vdd sky130_fd_pr__pfet_01v8_lvt ad=0p pd=0u as=0p ps=0u w=4e+06u l=2e+06u
X229 vdd.t131 vbias.t140 vout.t189 vdd sky130_fd_pr__pfet_01v8_lvt ad=0p pd=0u as=0p ps=0u w=4e+06u l=2e+06u
X230 a_23358_8312.t18 vn.t11 a_23732_3846.t0 vdd sky130_fd_pr__pfet_01v8_lvt ad=0p pd=0u as=0p ps=0u w=4e+06u l=350000u
X231 vout.t186 vbias.t141 vdd.t128 vdd sky130_fd_pr__pfet_01v8_lvt ad=0p pd=0u as=0p ps=0u w=4e+06u l=2e+06u
X232 vdd.t126 vbias.t142 a_23358_8312.t32 vdd sky130_fd_pr__pfet_01v8_lvt ad=0p pd=0u as=0p ps=0u w=4e+06u l=2e+06u
X233 vss.t9 a_19914_13542.t87 vout.t75 vss sky130_fd_pr__nfet_01v8_lvt ad=0p pd=0u as=0p ps=0u w=3e+06u l=350000u
X234 vss.t8 a_19914_13542.t88 vout.t78 vss sky130_fd_pr__nfet_01v8_lvt ad=0p pd=0u as=0p ps=0u w=3e+06u l=350000u
X235 a_23358_8312.t33 vbias.t143 vdd.t127 vdd sky130_fd_pr__pfet_01v8_lvt ad=0p pd=0u as=0p ps=0u w=4e+06u l=2e+06u
X236 vout.t184 vbias.t144 vdd.t124 vdd sky130_fd_pr__pfet_01v8_lvt ad=0p pd=0u as=0p ps=0u w=4e+06u l=2e+06u
X237 vdd.t28 vbias.t2 vbias.t3 vdd sky130_fd_pr__pfet_01v8_lvt ad=0p pd=0u as=0p ps=0u w=4e+06u l=2e+06u
X238 vss.t7 a_19914_13542.t89 vout.t54 vss sky130_fd_pr__nfet_01v8_lvt ad=0p pd=0u as=0p ps=0u w=3e+06u l=350000u
X239 vss.t6 a_19914_13542.t90 vout.t74 vss sky130_fd_pr__nfet_01v8_lvt ad=0p pd=0u as=0p ps=0u w=3e+06u l=350000u
X240 vss.t5 a_19914_13542.t91 vout.t69 vss sky130_fd_pr__nfet_01v8_lvt ad=0p pd=0u as=0p ps=0u w=3e+06u l=350000u
X241 vdd.t122 vbias.t145 vout.t182 vdd sky130_fd_pr__pfet_01v8_lvt ad=0p pd=0u as=0p ps=0u w=4e+06u l=2e+06u
X242 vdd.t123 vbias.t146 vout.t183 vdd sky130_fd_pr__pfet_01v8_lvt ad=0p pd=0u as=0p ps=0u w=4e+06u l=2e+06u
X243 vss.t4 a_19914_13542.t92 vout.t49 vss sky130_fd_pr__nfet_01v8_lvt ad=0p pd=0u as=0p ps=0u w=3e+06u l=350000u
X244 vdd.t120 vbias.t147 a_23358_8312.t31 vdd sky130_fd_pr__pfet_01v8_lvt ad=0p pd=0u as=0p ps=0u w=4e+06u l=2e+06u
X245 vdd.t1 vbias.t0 vbias.t1 vdd sky130_fd_pr__pfet_01v8_lvt ad=0p pd=0u as=0p ps=0u w=4e+06u l=2e+06u
X246 vout.t179 vbias.t148 vdd.t118 vdd sky130_fd_pr__pfet_01v8_lvt ad=0p pd=0u as=0p ps=0u w=4e+06u l=2e+06u
X247 vout.t180 vbias.t149 vdd.t119 vdd sky130_fd_pr__pfet_01v8_lvt ad=0p pd=0u as=0p ps=0u w=4e+06u l=2e+06u
X248 vout.t177 vbias.t150 vdd.t116 vdd sky130_fd_pr__pfet_01v8_lvt ad=0p pd=0u as=0p ps=0u w=4e+06u l=2e+06u
X249 vss.t3 a_19914_13542.t93 vout.t80 vss sky130_fd_pr__nfet_01v8_lvt ad=0p pd=0u as=0p ps=0u w=3e+06u l=350000u
X250 vdd.t114 vbias.t151 vout.t176 vdd sky130_fd_pr__pfet_01v8_lvt ad=0p pd=0u as=0p ps=0u w=4e+06u l=2e+06u
X251 vss.t2 a_19914_13542.t94 vout.t1 vss sky130_fd_pr__nfet_01v8_lvt ad=0p pd=0u as=0p ps=0u w=3e+06u l=350000u
X252 vout.t70 a_19914_13542.t95 vss.t1 vss sky130_fd_pr__nfet_01v8_lvt ad=0p pd=0u as=0p ps=0u w=3e+06u l=350000u
X253 vss.t0 a_19914_13542.t96 vout.t71 vss sky130_fd_pr__nfet_01v8_lvt ad=0p pd=0u as=0p ps=0u w=3e+06u l=350000u
X254 vss.t82 a_23732_3846.t12 a_23732_3846.t13 vss sky130_fd_pr__nfet_01v8_lvt ad=0p pd=0u as=0p ps=0u w=3e+06u l=350000u
X255 vdd.t115 vbias.t152 a_23358_8312.t30 vdd sky130_fd_pr__pfet_01v8_lvt ad=0p pd=0u as=0p ps=0u w=4e+06u l=2e+06u
X256 vdd.t112 vbias.t153 vout.t174 vdd sky130_fd_pr__pfet_01v8_lvt ad=0p pd=0u as=0p ps=0u w=4e+06u l=2e+06u
X257 vout.t172 vbias.t154 vdd.t110 vdd sky130_fd_pr__pfet_01v8_lvt ad=0p pd=0u as=0p ps=0u w=4e+06u l=2e+06u
X258 vout.t173 vbias.t155 vdd.t111 vdd sky130_fd_pr__pfet_01v8_lvt ad=0p pd=0u as=0p ps=0u w=4e+06u l=2e+06u
R0 vp.n7 vp.t3 347.346
R1 vp.n7 vp.t5 347.211
R2 vp.n8 vp.t4 347.039
R3 vp.n9 vp.t10 347.039
R4 vp.n0 vp.t2 347.039
R5 vp.n11 vp.t6 347.039
R6 vp.n15 vp.t0 347.039
R7 vp.n1 vp.t8 347.039
R8 vp.n2 vp.t7 347.039
R9 vp.n12 vp.t11 347.039
R10 vp.n13 vp.t1 347.039
R11 vp.n3 vp.t9 347.039
R12 vp.n23 vp.n22 1.667
R13 vp.n10 vp.n9 1.662
R14 vp.n23 vp.n17 1.082
R15 vp.n10 vp.n6 1.079
R16 vp vp.n23 0.543
R17 vp.n14 vp.n12 0.307
R18 vp.n4 vp.n2 0.307
R19 vp.n5 vp.n4 0.246
R20 vp.n21 vp.n19 0.241
R21 vp.n16 vp.n14 0.24
R22 vp.n8 vp.n7 0.235
R23 vp.n5 vp.n1 0.175
R24 vp.n22 vp.n18 0.175
R25 vp.n21 vp.n20 0.175
R26 vp.n6 vp.n0 0.175
R27 vp.n14 vp.n13 0.172
R28 vp.n4 vp.n3 0.172
R29 vp.n17 vp.n11 0.166
R30 vp.n16 vp.n15 0.166
R31 vp.n22 vp.n21 0.138
R32 vp.n17 vp.n16 0.136
R33 vp.n6 vp.n5 0.136
R34 vp.n9 vp.n8 0.086
R35 vp vp.n10 0.041
R36 a_23358_8312.n12 a_23358_8312.t25 8.207
R37 a_23358_8312.n0 a_23358_8312.t18 8.207
R38 a_23358_8312.n23 a_23358_8312.t15 7.146
R39 a_23358_8312.n22 a_23358_8312.t26 7.146
R40 a_23358_8312.n22 a_23358_8312.t10 7.146
R41 a_23358_8312.n21 a_23358_8312.t20 7.146
R42 a_23358_8312.n21 a_23358_8312.t4 7.146
R43 a_23358_8312.n4 a_23358_8312.t0 7.146
R44 a_23358_8312.n4 a_23358_8312.t30 7.146