* NGSPICE file created from OTA_tri_revised_post.ext - technology: sky130A

.subckt OTA_tri_revised_post vdd vp vn vbias vss vout
X0 vdd.t95 vbias.t48 vout.t57 vdd sky130_fd_pr__pfet_01v8_lvt ad=0p pd=0u as=0p ps=0u w=2e+06u l=1e+06u
X1 vout.t61 vbias.t49 vdd.t94 vdd sky130_fd_pr__pfet_01v8_lvt ad=0p pd=0u as=0p ps=0u w=2e+06u l=1e+06u
X2 vdd.t93 vbias.t50 w_30113_5597.t47 vdd sky130_fd_pr__pfet_01v8_lvt ad=0p pd=0u as=0p ps=0u w=2e+06u l=1e+06u
X3 vdd.t92 vbias.t51 w_30113_5597.t46 vdd sky130_fd_pr__pfet_01v8_lvt ad=0p pd=0u as=0p ps=0u w=2e+06u l=1e+06u
X4 vss.t87 a_31253_3585.t33 vout.t88 vss sky130_fd_pr__nfet_01v8_lvt ad=0p pd=0u as=0p ps=0u w=1e+06u l=1e+06u
X5 a_31253_3585.t16 a_30309_3497.t48 vss.t14 vss sky130_fd_pr__nfet_01v8_lvt ad=0p pd=0u as=0p ps=0u w=1e+06u l=1e+06u
X6 vss.t20 a_30309_3497.t49 a_31253_3585.t21 vss sky130_fd_pr__nfet_01v8_lvt ad=0p pd=0u as=0p ps=0u w=1e+06u l=1e+06u
X7 vdd.t91 vbias.t52 vout.t50 vdd sky130_fd_pr__pfet_01v8_lvt ad=0p pd=0u as=0p ps=0u w=2e+06u l=1e+06u
X8 w_30113_5597.t45 vbias.t53 vdd.t90 vdd sky130_fd_pr__pfet_01v8_lvt ad=0p pd=0u as=0p ps=0u w=2e+06u l=1e+06u
X9 w_30113_5597.t14 vn.t0 a_30309_3497.t38 w_30113_5597# sky130_fd_pr__pfet_01v8_lvt ad=0p pd=0u as=0p ps=0u w=4e+06u l=1e+06u
X10 a_31253_3585.t5 vp.t0 w_30113_5597.t4 w_30113_5597# sky130_fd_pr__pfet_01v8_lvt ad=0p pd=0u as=0p ps=0u w=4e+06u l=1e+06u
X11 a_30309_3497.t31 a_30309_3497.t30 vss.t12 vss sky130_fd_pr__nfet_01v8_lvt ad=0p pd=0u as=0p ps=0u w=1e+06u l=1e+06u
X12 vout.t33 a_31253_3585.t34 vss.t86 vss sky130_fd_pr__nfet_01v8_lvt ad=0p pd=0u as=0p ps=0u w=1e+06u l=1e+06u
X13 vdd.t89 vbias.t54 w_30113_5597.t44 vdd sky130_fd_pr__pfet_01v8_lvt ad=0p pd=0u as=0p ps=0u w=2e+06u l=1e+06u
X14 vout.t77 vbias.t55 vdd.t88 vdd sky130_fd_pr__pfet_01v8_lvt ad=0p pd=0u as=0p ps=0u w=2e+06u l=1e+06u
X15 vss.t85 a_31253_3585.t35 vout.t101 vss sky130_fd_pr__nfet_01v8_lvt ad=0p pd=0u as=0p ps=0u w=1e+06u l=1e+06u
X16 vbias.t13 vbias.t12 vdd.t87 vdd sky130_fd_pr__pfet_01v8_lvt ad=0p pd=0u as=0p ps=0u w=2e+06u l=1e+06u
X17 w_30113_5597.t20 vp.t1 a_31253_3585.t17 w_30113_5597# sky130_fd_pr__pfet_01v8_lvt ad=0p pd=0u as=0p ps=0u w=4e+06u l=1e+06u
X18 vss.t9 a_30309_3497.t50 a_31253_3585.t12 vss sky130_fd_pr__nfet_01v8_lvt ad=0p pd=0u as=0p ps=0u w=1e+06u l=1e+06u
X19 vdd.t86 vbias.t56 vout.t76 vdd sky130_fd_pr__pfet_01v8_lvt ad=0p pd=0u as=0p ps=0u w=2e+06u l=1e+06u
X20 w_30113_5597.t21 vp.t2 a_31253_3585.t18 w_30113_5597# sky130_fd_pr__pfet_01v8_lvt ad=0p pd=0u as=0p ps=0u w=4e+06u l=1e+06u
X21 a_31253_3585.t13 a_30309_3497.t51 vss.t10 vss sky130_fd_pr__nfet_01v8_lvt ad=0p pd=0u as=0p ps=0u w=1e+06u l=1e+06u
X22 vbias.t35 vbias.t34 vdd.t85 vdd sky130_fd_pr__pfet_01v8_lvt ad=0p pd=0u as=0p ps=0u w=2e+06u l=1e+06u
X23 vbias.t47 vbias.t46 vdd.t84 vdd sky130_fd_pr__pfet_01v8_lvt ad=0p pd=0u as=0p ps=0u w=2e+06u l=1e+06u
X24 vout.t112 a_31253_3585.t36 vss.t84 vss sky130_fd_pr__nfet_01v8_lvt ad=0p pd=0u as=0p ps=0u w=1e+06u l=1e+06u
X25 vout.t87 a_31253_3585.t37 vss.t83 vss sky130_fd_pr__nfet_01v8_lvt ad=0p pd=0u as=0p ps=0u w=1e+06u l=1e+06u
X26 vss.t2 a_30309_3497.t28 a_30309_3497.t29 vss sky130_fd_pr__nfet_01v8_lvt ad=0p pd=0u as=0p ps=0u w=1e+06u l=1e+06u
X27 vss.t82 a_31253_3585.t38 vout.t2 vss sky130_fd_pr__nfet_01v8_lvt ad=0p pd=0u as=0p ps=0u w=1e+06u l=1e+06u
X28 a_31253_3585.t15 vp.t3 w_30113_5597.t17 w_30113_5597# sky130_fd_pr__pfet_01v8_lvt ad=0p pd=0u as=0p ps=0u w=4e+06u l=1e+06u
X29 a_31253_3585.t9 vp.t4 w_30113_5597.t10 w_30113_5597# sky130_fd_pr__pfet_01v8_lvt ad=0p pd=0u as=0p ps=0u w=4e+06u l=1e+06u
X30 vout.t24 a_31253_3585.t39 vss.t81 vss sky130_fd_pr__nfet_01v8_lvt ad=0p pd=0u as=0p ps=0u w=1e+06u l=1e+06u
X31 vbias.t41 vbias.t40 vdd.t83 vdd sky130_fd_pr__pfet_01v8_lvt ad=0p pd=0u as=0p ps=0u w=2e+06u l=1e+06u
X32 vdd.t82 vbias.t6 vbias.t7 vdd sky130_fd_pr__pfet_01v8_lvt ad=0p pd=0u as=0p ps=0u w=2e+06u l=1e+06u
X33 vout.t37 vbias.t57 vdd.t81 vdd sky130_fd_pr__pfet_01v8_lvt ad=0p pd=0u as=0p ps=0u w=2e+06u l=1e+06u
X34 vss.t80 a_31253_3585.t40 vout.t111 vss sky130_fd_pr__nfet_01v8_lvt ad=0p pd=0u as=0p ps=0u w=1e+06u l=1e+06u
X35 vdd.t80 vbias.t58 vout.t59 vdd sky130_fd_pr__pfet_01v8_lvt ad=0p pd=0u as=0p ps=0u w=2e+06u l=1e+06u
X36 vdd.t79 vbias.t59 vout.t53 vdd sky130_fd_pr__pfet_01v8_lvt ad=0p pd=0u as=0p ps=0u w=2e+06u l=1e+06u
X37 a_30309_3497.t41 vn.t1 w_30113_5597.t18 w_30113_5597# sky130_fd_pr__pfet_01v8_lvt ad=0p pd=0u as=0p ps=0u w=4e+06u l=1e+06u
X38 vss.t23 a_30309_3497.t26 a_30309_3497.t27 vss sky130_fd_pr__nfet_01v8_lvt ad=0p pd=0u as=0p ps=0u w=1e+06u l=1e+06u
X39 w_30113_5597.t43 vbias.t60 vdd.t78 vdd sky130_fd_pr__pfet_01v8_lvt ad=0p pd=0u as=0p ps=0u w=2e+06u l=1e+06u
X40 vdd.t77 vbias.t24 vbias.t25 vdd sky130_fd_pr__pfet_01v8_lvt ad=0p pd=0u as=0p ps=0u w=2e+06u l=1e+06u
X41 vout.t44 vbias.t61 vdd.t76 vdd sky130_fd_pr__pfet_01v8_lvt ad=0p pd=0u as=0p ps=0u w=2e+06u l=1e+06u
X42 w_30113_5597.t3 vn.t2 a_30309_3497.t32 w_30113_5597# sky130_fd_pr__pfet_01v8_lvt ad=0p pd=0u as=0p ps=0u w=4e+06u l=1e+06u
X43 vout.t32 a_31253_3585.t41 vss.t79 vss sky130_fd_pr__nfet_01v8_lvt ad=0p pd=0u as=0p ps=0u w=1e+06u l=1e+06u
X44 a_31253_3585.t27 a_30309_3497.t52 vss.t91 vss sky130_fd_pr__nfet_01v8_lvt ad=0p pd=0u as=0p ps=0u w=1e+06u l=1e+06u
X45 vss.t78 a_31253_3585.t42 vout.t16 vss sky130_fd_pr__nfet_01v8_lvt ad=0p pd=0u as=0p ps=0u w=1e+06u l=1e+06u
X46 vdd.t75 vbias.t62 w_30113_5597.t42 vdd sky130_fd_pr__pfet_01v8_lvt ad=0p pd=0u as=0p ps=0u w=2e+06u l=1e+06u
X47 vout.t43 vbias.t63 vdd.t74 vdd sky130_fd_pr__pfet_01v8_lvt ad=0p pd=0u as=0p ps=0u w=2e+06u l=1e+06u
X48 vdd.t73 vbias.t2 vbias.t3 vdd sky130_fd_pr__pfet_01v8_lvt ad=0p pd=0u as=0p ps=0u w=2e+06u l=1e+06u
X49 vout.t36 vbias.t64 vdd.t72 vdd sky130_fd_pr__pfet_01v8_lvt ad=0p pd=0u as=0p ps=0u w=2e+06u l=1e+06u
X50 a_31253_3585.t3 vp.t5 w_30113_5597.t1 w_30113_5597# sky130_fd_pr__pfet_01v8_lvt ad=0p pd=0u as=0p ps=0u w=4e+06u l=1e+06u
X51 vout.t94 a_31253_3585.t43 vss.t77 vss sky130_fd_pr__nfet_01v8_lvt ad=0p pd=0u as=0p ps=0u w=1e+06u l=1e+06u
X52 w_30113_5597.t41 vbias.t65 vdd.t71 vdd sky130_fd_pr__pfet_01v8_lvt ad=0p pd=0u as=0p ps=0u w=2e+06u l=1e+06u
X53 vss.t76 a_31253_3585.t44 vout.t9 vss sky130_fd_pr__nfet_01v8_lvt ad=0p pd=0u as=0p ps=0u w=1e+06u l=1e+06u
X54 vdd.t70 vbias.t66 vout.t38 vdd sky130_fd_pr__pfet_01v8_lvt ad=0p pd=0u as=0p ps=0u w=2e+06u l=1e+06u
X55 vout.t46 vbias.t67 vdd.t69 vdd sky130_fd_pr__pfet_01v8_lvt ad=0p pd=0u as=0p ps=0u w=2e+06u l=1e+06u
X56 vdd.t68 vbias.t38 vbias.t39 vdd sky130_fd_pr__pfet_01v8_lvt ad=0p pd=0u as=0p ps=0u w=2e+06u l=1e+06u
X57 w_30113_5597.t40 vbias.t68 vdd.t67 vdd sky130_fd_pr__pfet_01v8_lvt ad=0p pd=0u as=0p ps=0u w=2e+06u l=1e+06u
X58 a_31253_3585.t26 a_30309_3497.t53 vss.t90 vss sky130_fd_pr__nfet_01v8_lvt ad=0p pd=0u as=0p ps=0u w=1e+06u l=1e+06u
X59 vss.t7 a_30309_3497.t24 a_30309_3497.t25 vss sky130_fd_pr__nfet_01v8_lvt ad=0p pd=0u as=0p ps=0u w=1e+06u l=1e+06u
X60 vout.t45 vbias.t69 vdd.t66 vdd sky130_fd_pr__pfet_01v8_lvt ad=0p pd=0u as=0p ps=0u w=2e+06u l=1e+06u
X61 a_31253_3585.t29 vp.t6 w_30113_5597.t54 w_30113_5597# sky130_fd_pr__pfet_01v8_lvt ad=0p pd=0u as=0p ps=0u w=4e+06u l=1e+06u
X62 a_31253_3585.t22 a_30309_3497.t54 vss.t21 vss sky130_fd_pr__nfet_01v8_lvt ad=0p pd=0u as=0p ps=0u w=1e+06u l=1e+06u
X63 vss.t75 a_31253_3585.t45 vout.t20 vss sky130_fd_pr__nfet_01v8_lvt ad=0p pd=0u as=0p ps=0u w=1e+06u l=1e+06u
X64 vout.t19 a_31253_3585.t46 vss.t74 vss sky130_fd_pr__nfet_01v8_lvt ad=0p pd=0u as=0p ps=0u w=1e+06u l=1e+06u
X65 vout.t89 a_31253_3585.t47 vss.t73 vss sky130_fd_pr__nfet_01v8_lvt ad=0p pd=0u as=0p ps=0u w=1e+06u l=1e+06u
X66 vdd.t65 vbias.t70 vout.t34 vdd sky130_fd_pr__pfet_01v8_lvt ad=0p pd=0u as=0p ps=0u w=2e+06u l=1e+06u
X67 vdd.t64 vbias.t71 vout.t47 vdd sky130_fd_pr__pfet_01v8_lvt ad=0p pd=0u as=0p ps=0u w=2e+06u l=1e+06u
X68 w_30113_5597.t53 vn.t3 a_30309_3497.t47 w_30113_5597# sky130_fd_pr__pfet_01v8_lvt ad=0p pd=0u as=0p ps=0u w=4e+06u l=1e+06u
X69 vss.t72 a_31253_3585.t48 vout.t1 vss sky130_fd_pr__nfet_01v8_lvt ad=0p pd=0u as=0p ps=0u w=1e+06u l=1e+06u
X70 vss.t71 a_31253_3585.t49 vout.t110 vss sky130_fd_pr__nfet_01v8_lvt ad=0p pd=0u as=0p ps=0u w=1e+06u l=1e+06u
X71 vdd.t63 vbias.t72 w_30113_5597.t39 vdd sky130_fd_pr__pfet_01v8_lvt ad=0p pd=0u as=0p ps=0u w=2e+06u l=1e+06u
X72 vdd.t62 vbias.t73 w_30113_5597.t38 vdd sky130_fd_pr__pfet_01v8_lvt ad=0p pd=0u as=0p ps=0u w=2e+06u l=1e+06u
X73 a_31253_3585.t20 a_30309_3497.t55 vss.t19 vss sky130_fd_pr__nfet_01v8_lvt ad=0p pd=0u as=0p ps=0u w=1e+06u l=1e+06u
X74 a_30309_3497.t23 a_30309_3497.t22 vss.t6 vss sky130_fd_pr__nfet_01v8_lvt ad=0p pd=0u as=0p ps=0u w=1e+06u l=1e+06u
X75 a_31253_3585.t19 vp.t7 w_30113_5597.t23 w_30113_5597# sky130_fd_pr__pfet_01v8_lvt ad=0p pd=0u as=0p ps=0u w=4e+06u l=1e+06u
X76 vout.t31 a_31253_3585.t50 vss.t70 vss sky130_fd_pr__nfet_01v8_lvt ad=0p pd=0u as=0p ps=0u w=1e+06u l=1e+06u
X77 vdd.t61 vbias.t74 vout.t80 vdd sky130_fd_pr__pfet_01v8_lvt ad=0p pd=0u as=0p ps=0u w=2e+06u l=1e+06u
X78 vss.t69 a_31253_3585.t51 vout.t8 vss sky130_fd_pr__nfet_01v8_lvt ad=0p pd=0u as=0p ps=0u w=1e+06u l=1e+06u
X79 w_30113_5597.t37 vbias.t75 vdd.t60 vdd sky130_fd_pr__pfet_01v8_lvt ad=0p pd=0u as=0p ps=0u w=2e+06u l=1e+06u
X80 vss.t68 a_31253_3585.t52 vout.t15 vss sky130_fd_pr__nfet_01v8_lvt ad=0p pd=0u as=0p ps=0u w=1e+06u l=1e+06u
X81 a_30309_3497.t43 vn.t4 w_30113_5597.t22 w_30113_5597# sky130_fd_pr__pfet_01v8_lvt ad=0p pd=0u as=0p ps=0u w=4e+06u l=1e+06u
X82 vss.t67 a_31253_3585.t53 vout.t14 vss sky130_fd_pr__nfet_01v8_lvt ad=0p pd=0u as=0p ps=0u w=1e+06u l=1e+06u
X83 vdd.t59 vbias.t76 w_30113_5597.t36 vdd sky130_fd_pr__pfet_01v8_lvt ad=0p pd=0u as=0p ps=0u w=2e+06u l=1e+06u
X84 vout.t73 vbias.t77 vdd.t58 vdd sky130_fd_pr__pfet_01v8_lvt ad=0p pd=0u as=0p ps=0u w=2e+06u l=1e+06u
X85 w_30113_5597.t8 vn.t5 a_30309_3497.t35 w_30113_5597# sky130_fd_pr__pfet_01v8_lvt ad=0p pd=0u as=0p ps=0u w=4e+06u l=1e+06u
X86 vss.t5 a_30309_3497.t56 a_31253_3585.t6 vss sky130_fd_pr__nfet_01v8_lvt ad=0p pd=0u as=0p ps=0u w=1e+06u l=1e+06u
X87 vout.t13 a_31253_3585.t54 vss.t66 vss sky130_fd_pr__nfet_01v8_lvt ad=0p pd=0u as=0p ps=0u w=1e+06u l=1e+06u
X88 vbias.t31 vbias.t30 vdd.t57 vdd sky130_fd_pr__pfet_01v8_lvt ad=0p pd=0u as=0p ps=0u w=2e+06u l=1e+06u
X89 vdd.t56 vbias.t78 vout.t41 vdd sky130_fd_pr__pfet_01v8_lvt ad=0p pd=0u as=0p ps=0u w=2e+06u l=1e+06u
X90 vout.t66 vbias.t79 vdd.t55 vdd sky130_fd_pr__pfet_01v8_lvt ad=0p pd=0u as=0p ps=0u w=2e+06u l=1e+06u
X91 vdd.t54 vbias.t80 vout.t58 vdd sky130_fd_pr__pfet_01v8_lvt ad=0p pd=0u as=0p ps=0u w=2e+06u l=1e+06u
X92 vbias.t33 vbias.t32 vdd.t53 vdd sky130_fd_pr__pfet_01v8_lvt ad=0p pd=0u as=0p ps=0u w=2e+06u l=1e+06u
X93 vss.t94 a_30309_3497.t57 a_31253_3585.t31 vss sky130_fd_pr__nfet_01v8_lvt ad=0p pd=0u as=0p ps=0u w=1e+06u l=1e+06u
X94 vss.t65 a_31253_3585.t55 vout.t100 vss sky130_fd_pr__nfet_01v8_lvt ad=0p pd=0u as=0p ps=0u w=1e+06u l=1e+06u
X95 vout.t109 a_31253_3585.t56 vss.t64 vss sky130_fd_pr__nfet_01v8_lvt ad=0p pd=0u as=0p ps=0u w=1e+06u l=1e+06u
X96 vss.t88 a_30309_3497.t20 a_30309_3497.t21 vss sky130_fd_pr__nfet_01v8_lvt ad=0p pd=0u as=0p ps=0u w=1e+06u l=1e+06u
X97 a_30309_3497.t37 vn.t6 w_30113_5597.t13 w_30113_5597# sky130_fd_pr__pfet_01v8_lvt ad=0p pd=0u as=0p ps=0u w=4e+06u l=1e+06u
X98 vss.t63 a_31253_3585.t57 vout.t91 vss sky130_fd_pr__nfet_01v8_lvt ad=0p pd=0u as=0p ps=0u w=1e+06u l=1e+06u
X99 w_30113_5597.t52 vp.t8 a_31253_3585.t25 w_30113_5597# sky130_fd_pr__pfet_01v8_lvt ad=0p pd=0u as=0p ps=0u w=4e+06u l=1e+06u
X100 vout.t7 a_31253_3585.t58 vss.t62 vss sky130_fd_pr__nfet_01v8_lvt ad=0p pd=0u as=0p ps=0u w=1e+06u l=1e+06u
X101 vout.t23 a_31253_3585.t59 vss.t61 vss sky130_fd_pr__nfet_01v8_lvt ad=0p pd=0u as=0p ps=0u w=1e+06u l=1e+06u
X102 vdd.t52 vbias.t26 vbias.t27 vdd sky130_fd_pr__pfet_01v8_lvt ad=0p pd=0u as=0p ps=0u w=2e+06u l=1e+06u
X103 vbias.t23 vbias.t22 vdd.t51 vdd sky130_fd_pr__pfet_01v8_lvt ad=0p pd=0u as=0p ps=0u w=2e+06u l=1e+06u
X104 vout.t108 a_31253_3585.t60 vss.t60 vss sky130_fd_pr__nfet_01v8_lvt ad=0p pd=0u as=0p ps=0u w=1e+06u l=1e+06u
X105 vss.t15 a_30309_3497.t18 a_30309_3497.t19 vss sky130_fd_pr__nfet_01v8_lvt ad=0p pd=0u as=0p ps=0u w=1e+06u l=1e+06u
X106 vout.t30 a_31253_3585.t61 vss.t59 vss sky130_fd_pr__nfet_01v8_lvt ad=0p pd=0u as=0p ps=0u w=1e+06u l=1e+06u
X107 vbias.t9 vbias.t8 vdd.t50 vdd sky130_fd_pr__pfet_01v8_lvt ad=0p pd=0u as=0p ps=0u w=2e+06u l=1e+06u
X108 vdd.t49 vbias.t81 vout.t68 vdd sky130_fd_pr__pfet_01v8_lvt ad=0p pd=0u as=0p ps=0u w=2e+06u l=1e+06u
X109 vout.t71 vbias.t82 vdd.t48 vdd sky130_fd_pr__pfet_01v8_lvt ad=0p pd=0u as=0p ps=0u w=2e+06u l=1e+06u
X110 w_30113_5597.t7 vp.t9 a_31253_3585.t7 w_30113_5597# sky130_fd_pr__pfet_01v8_lvt ad=0p pd=0u as=0p ps=0u w=4e+06u l=1e+06u
X111 vss.t0 a_30309_3497.t16 a_30309_3497.t17 vss sky130_fd_pr__nfet_01v8_lvt ad=0p pd=0u as=0p ps=0u w=1e+06u l=1e+06u
X112 vdd.t47 vbias.t42 vbias.t43 vdd sky130_fd_pr__pfet_01v8_lvt ad=0p pd=0u as=0p ps=0u w=2e+06u l=1e+06u
X113 vout.t74 vbias.t83 vdd.t46 vdd sky130_fd_pr__pfet_01v8_lvt ad=0p pd=0u as=0p ps=0u w=2e+06u l=1e+06u
X114 w_30113_5597.t51 vn.t7 a_30309_3497.t46 w_30113_5597# sky130_fd_pr__pfet_01v8_lvt ad=0p pd=0u as=0p ps=0u w=4e+06u l=1e+06u
X115 a_30309_3497.t15 a_30309_3497.t14 vss.t4 vss sky130_fd_pr__nfet_01v8_lvt ad=0p pd=0u as=0p ps=0u w=1e+06u l=1e+06u
X116 vout.t42 vbias.t84 vdd.t45 vdd sky130_fd_pr__pfet_01v8_lvt ad=0p pd=0u as=0p ps=0u w=2e+06u l=1e+06u
X117 vss.t58 a_31253_3585.t62 vout.t107 vss sky130_fd_pr__nfet_01v8_lvt ad=0p pd=0u as=0p ps=0u w=1e+06u l=1e+06u
X118 a_30309_3497.t13 a_30309_3497.t12 vss.t89 vss sky130_fd_pr__nfet_01v8_lvt ad=0p pd=0u as=0p ps=0u w=1e+06u l=1e+06u
X119 vdd.t44 vbias.t85 vout.t62 vdd sky130_fd_pr__pfet_01v8_lvt ad=0p pd=0u as=0p ps=0u w=2e+06u l=1e+06u
X120 vss.t57 a_31253_3585.t63 vout.t29 vss sky130_fd_pr__nfet_01v8_lvt ad=0p pd=0u as=0p ps=0u w=1e+06u l=1e+06u
X121 vdd.t43 vbias.t4 vbias.t5 vdd sky130_fd_pr__pfet_01v8_lvt ad=0p pd=0u as=0p ps=0u w=2e+06u l=1e+06u
X122 vout.t99 a_31253_3585.t64 vss.t56 vss sky130_fd_pr__nfet_01v8_lvt ad=0p pd=0u as=0p ps=0u w=1e+06u l=1e+06u
X123 vout.t28 a_31253_3585.t65 vss.t55 vss sky130_fd_pr__nfet_01v8_lvt ad=0p pd=0u as=0p ps=0u w=1e+06u l=1e+06u
X124 w_30113_5597.t2 vp.t10 a_31253_3585.t4 w_30113_5597# sky130_fd_pr__pfet_01v8_lvt ad=0p pd=0u as=0p ps=0u w=4e+06u l=1e+06u
X125 a_31253_3585.t23 a_30309_3497.t58 vss.t22 vss sky130_fd_pr__nfet_01v8_lvt ad=0p pd=0u as=0p ps=0u w=1e+06u l=1e+06u
X126 vss.t54 a_31253_3585.t66 vout.t86 vss sky130_fd_pr__nfet_01v8_lvt ad=0p pd=0u as=0p ps=0u w=1e+06u l=1e+06u
X127 w_30113_5597.t35 vbias.t86 vdd.t42 vdd sky130_fd_pr__pfet_01v8_lvt ad=0p pd=0u as=0p ps=0u w=2e+06u l=1e+06u
X128 w_30113_5597.t34 vbias.t87 vdd.t41 vdd sky130_fd_pr__pfet_01v8_lvt ad=0p pd=0u as=0p ps=0u w=2e+06u l=1e+06u
X129 a_30309_3497.t34 vn.t8 w_30113_5597.t6 w_30113_5597# sky130_fd_pr__pfet_01v8_lvt ad=0p pd=0u as=0p ps=0u w=4e+06u l=1e+06u
X130 vout.t64 vbias.t88 vdd.t40 vdd sky130_fd_pr__pfet_01v8_lvt ad=0p pd=0u as=0p ps=0u w=2e+06u l=1e+06u
X131 w_30113_5597.t33 vbias.t89 vdd.t39 vdd sky130_fd_pr__pfet_01v8_lvt ad=0p pd=0u as=0p ps=0u w=2e+06u l=1e+06u
X132 vdd.t38 vbias.t90 w_30113_5597.t32 vdd sky130_fd_pr__pfet_01v8_lvt ad=0p pd=0u as=0p ps=0u w=2e+06u l=1e+06u
X133 vdd.t37 vbias.t14 vbias.t15 vdd sky130_fd_pr__pfet_01v8_lvt ad=0p pd=0u as=0p ps=0u w=2e+06u l=1e+06u
X134 vout.t52 vbias.t91 vdd.t36 vdd sky130_fd_pr__pfet_01v8_lvt ad=0p pd=0u as=0p ps=0u w=2e+06u l=1e+06u
X135 a_30309_3497.t11 a_30309_3497.t10 vss.t93 vss sky130_fd_pr__nfet_01v8_lvt ad=0p pd=0u as=0p ps=0u w=1e+06u l=1e+06u
X136 a_30309_3497.t36 vn.t9 w_30113_5597.t12 w_30113_5597# sky130_fd_pr__pfet_01v8_lvt ad=0p pd=0u as=0p ps=0u w=4e+06u l=1e+06u
X137 w_30113_5597.t19 vn.t10 a_30309_3497.t42 w_30113_5597# sky130_fd_pr__pfet_01v8_lvt ad=0p pd=0u as=0p ps=0u w=4e+06u l=1e+06u
X138 vss.t53 a_31253_3585.t67 vout.t83 vss sky130_fd_pr__nfet_01v8_lvt ad=0p pd=0u as=0p ps=0u w=1e+06u l=1e+06u
X139 vss.t92 a_30309_3497.t59 a_31253_3585.t28 vss sky130_fd_pr__nfet_01v8_lvt ad=0p pd=0u as=0p ps=0u w=1e+06u l=1e+06u
X140 vdd.t35 vbias.t92 vout.t78 vdd sky130_fd_pr__pfet_01v8_lvt ad=0p pd=0u as=0p ps=0u w=2e+06u l=1e+06u
X141 vdd.t34 vbias.t93 vout.t51 vdd sky130_fd_pr__pfet_01v8_lvt ad=0p pd=0u as=0p ps=0u w=2e+06u l=1e+06u
X142 vout.t98 a_31253_3585.t68 vss.t52 vss sky130_fd_pr__nfet_01v8_lvt ad=0p pd=0u as=0p ps=0u w=1e+06u l=1e+06u
X143 a_31253_3585.t14 a_30309_3497.t60 vss.t11 vss sky130_fd_pr__nfet_01v8_lvt ad=0p pd=0u as=0p ps=0u w=1e+06u l=1e+06u
X144 vss.t51 a_31253_3585.t69 vout.t106 vss sky130_fd_pr__nfet_01v8_lvt ad=0p pd=0u as=0p ps=0u w=1e+06u l=1e+06u
X145 vout.t93 a_31253_3585.t70 vss.t50 vss sky130_fd_pr__nfet_01v8_lvt ad=0p pd=0u as=0p ps=0u w=1e+06u l=1e+06u
X146 vout.t75 vbias.t94 vdd.t33 vdd sky130_fd_pr__pfet_01v8_lvt ad=0p pd=0u as=0p ps=0u w=2e+06u l=1e+06u
X147 vout.t6 a_31253_3585.t71 vss.t49 vss sky130_fd_pr__nfet_01v8_lvt ad=0p pd=0u as=0p ps=0u w=1e+06u l=1e+06u
X148 a_30309_3497.t40 vn.t11 w_30113_5597.t16 w_30113_5597# sky130_fd_pr__pfet_01v8_lvt ad=0p pd=0u as=0p ps=0u w=4e+06u l=1e+06u
X149 vout.t22 a_31253_3585.t72 vss.t48 vss sky130_fd_pr__nfet_01v8_lvt ad=0p pd=0u as=0p ps=0u w=1e+06u l=1e+06u
X150 vss.t47 a_31253_3585.t73 vout.t92 vss sky130_fd_pr__nfet_01v8_lvt ad=0p pd=0u as=0p ps=0u w=1e+06u l=1e+06u
X151 vdd.t32 vbias.t95 vout.t70 vdd sky130_fd_pr__pfet_01v8_lvt ad=0p pd=0u as=0p ps=0u w=2e+06u l=1e+06u
X152 vdd.t31 vbias.t96 w_30113_5597.t31 vdd sky130_fd_pr__pfet_01v8_lvt ad=0p pd=0u as=0p ps=0u w=2e+06u l=1e+06u
X153 a_31253_3585.t24 vp.t11 w_30113_5597.t49 w_30113_5597# sky130_fd_pr__pfet_01v8_lvt ad=0p pd=0u as=0p ps=0u w=4e+06u l=1e+06u
X154 vdd.t30 vbias.t97 vout.t56 vdd sky130_fd_pr__pfet_01v8_lvt ad=0p pd=0u as=0p ps=0u w=2e+06u l=1e+06u
X155 vss.t8 a_30309_3497.t61 a_31253_3585.t11 vss sky130_fd_pr__nfet_01v8_lvt ad=0p pd=0u as=0p ps=0u w=1e+06u l=1e+06u
X156 w_30113_5597.t30 vbias.t98 vdd.t29 vdd sky130_fd_pr__pfet_01v8_lvt ad=0p pd=0u as=0p ps=0u w=2e+06u l=1e+06u
X157 w_30113_5597.t0 vp.t12 a_31253_3585.t1 w_30113_5597# sky130_fd_pr__pfet_01v8_lvt ad=0p pd=0u as=0p ps=0u w=4e+06u l=1e+06u
X158 vout.t54 vbias.t99 vdd.t28 vdd sky130_fd_pr__pfet_01v8_lvt ad=0p pd=0u as=0p ps=0u w=2e+06u l=1e+06u
X159 vout.t105 a_31253_3585.t74 vss.t46 vss sky130_fd_pr__nfet_01v8_lvt ad=0p pd=0u as=0p ps=0u w=1e+06u l=1e+06u
X160 vdd.t27 vbias.t100 w_30113_5597.t29 vdd sky130_fd_pr__pfet_01v8_lvt ad=0p pd=0u as=0p ps=0u w=2e+06u l=1e+06u
X161 vdd.t26 vbias.t101 w_30113_5597.t28 vdd sky130_fd_pr__pfet_01v8_lvt ad=0p pd=0u as=0p ps=0u w=2e+06u l=1e+06u
X162 vout.t27 a_31253_3585.t75 vss.t45 vss sky130_fd_pr__nfet_01v8_lvt ad=0p pd=0u as=0p ps=0u w=1e+06u l=1e+06u
X163 vss.t44 a_31253_3585.t76 vout.t97 vss sky130_fd_pr__nfet_01v8_lvt ad=0p pd=0u as=0p ps=0u w=1e+06u l=1e+06u
X164 a_30309_3497.t9 a_30309_3497.t8 vss.t3 vss sky130_fd_pr__nfet_01v8_lvt ad=0p pd=0u as=0p ps=0u w=1e+06u l=1e+06u
X165 vdd.t25 vbias.t102 vout.t60 vdd sky130_fd_pr__pfet_01v8_lvt ad=0p pd=0u as=0p ps=0u w=2e+06u l=1e+06u
X166 a_31253_3585.t2 a_33905_7431# vss sky130_fd_pr__res_xhigh_po w=350000u l=2.8e+06u
X167 vout.t26 a_31253_3585.t77 vss.t43 vss sky130_fd_pr__nfet_01v8_lvt ad=0p pd=0u as=0p ps=0u w=1e+06u l=1e+06u
X168 vbias.t37 vbias.t36 vdd.t24 vdd sky130_fd_pr__pfet_01v8_lvt ad=0p pd=0u as=0p ps=0u w=2e+06u l=1e+06u
X169 vss.t42 a_31253_3585.t78 vout.t85 vss sky130_fd_pr__nfet_01v8_lvt ad=0p pd=0u as=0p ps=0u w=1e+06u l=1e+06u
X170 vss.t41 a_31253_3585.t79 vout.t82 vss sky130_fd_pr__nfet_01v8_lvt ad=0p pd=0u as=0p ps=0u w=1e+06u l=1e+06u
X171 vout.t96 a_31253_3585.t80 vss.t40 vss sky130_fd_pr__nfet_01v8_lvt ad=0p pd=0u as=0p ps=0u w=1e+06u l=1e+06u
X172 a_31253_3585.t10 vp.t13 w_30113_5597.t11 w_30113_5597# sky130_fd_pr__pfet_01v8_lvt ad=0p pd=0u as=0p ps=0u w=4e+06u l=1e+06u
X173 vout.t48 vbias.t103 vdd.t23 vdd sky130_fd_pr__pfet_01v8_lvt ad=0p pd=0u as=0p ps=0u w=2e+06u l=1e+06u
X174 a_30309_3497.t7 a_30309_3497.t6 vss.t13 vss sky130_fd_pr__nfet_01v8_lvt ad=0p pd=0u as=0p ps=0u w=1e+06u l=1e+06u
X175 a_30309_3497.t44 vn.t12 w_30113_5597.t48 w_30113_5597# sky130_fd_pr__pfet_01v8_lvt ad=0p pd=0u as=0p ps=0u w=4e+06u l=1e+06u
X176 vdd.t22 vbias.t104 vout.t81 vdd sky130_fd_pr__pfet_01v8_lvt ad=0p pd=0u as=0p ps=0u w=2e+06u l=1e+06u
X177 vout.t104 a_31253_3585.t81 vss.t39 vss sky130_fd_pr__nfet_01v8_lvt ad=0p pd=0u as=0p ps=0u w=1e+06u l=1e+06u
X178 vss.t38 a_31253_3585.t82 vout.t18 vss sky130_fd_pr__nfet_01v8_lvt ad=0p pd=0u as=0p ps=0u w=1e+06u l=1e+06u
X179 vdd.t21 vbias.t16 vbias.t17 vdd sky130_fd_pr__pfet_01v8_lvt ad=0p pd=0u as=0p ps=0u w=2e+06u l=1e+06u
X180 vbias.t45 vbias.t44 vdd.t20 vdd sky130_fd_pr__pfet_01v8_lvt ad=0p pd=0u as=0p ps=0u w=2e+06u l=1e+06u
X181 vbias.t19 vbias.t18 vdd.t19 vdd sky130_fd_pr__pfet_01v8_lvt ad=0p pd=0u as=0p ps=0u w=2e+06u l=1e+06u
X182 vout.t5 a_31253_3585.t83 vss.t37 vss sky130_fd_pr__nfet_01v8_lvt ad=0p pd=0u as=0p ps=0u w=1e+06u l=1e+06u
X183 vss.t36 a_31253_3585.t84 vout.t21 vss sky130_fd_pr__nfet_01v8_lvt ad=0p pd=0u as=0p ps=0u w=1e+06u l=1e+06u
X184 vss.t17 a_30309_3497.t4 a_30309_3497.t5 vss sky130_fd_pr__nfet_01v8_lvt ad=0p pd=0u as=0p ps=0u w=1e+06u l=1e+06u
X185 vdd.t18 vbias.t105 vout.t79 vdd sky130_fd_pr__pfet_01v8_lvt ad=0p pd=0u as=0p ps=0u w=2e+06u l=1e+06u
X186 vss.t35 a_31253_3585.t85 vout.t84 vss sky130_fd_pr__nfet_01v8_lvt ad=0p pd=0u as=0p ps=0u w=1e+06u l=1e+06u
X187 vss.t34 a_31253_3585.t86 vout.t17 vss sky130_fd_pr__nfet_01v8_lvt ad=0p pd=0u as=0p ps=0u w=1e+06u l=1e+06u
X188 vout.t103 a_31253_3585.t87 vss.t33 vss sky130_fd_pr__nfet_01v8_lvt ad=0p pd=0u as=0p ps=0u w=1e+06u l=1e+06u
X189 vout.t67 vbias.t106 vdd.t17 vdd sky130_fd_pr__pfet_01v8_lvt ad=0p pd=0u as=0p ps=0u w=2e+06u l=1e+06u
X190 vout.t69 vbias.t107 vdd.t16 vdd sky130_fd_pr__pfet_01v8_lvt ad=0p pd=0u as=0p ps=0u w=2e+06u l=1e+06u
X191 vbias.t1 vbias.t0 vdd.t15 vdd sky130_fd_pr__pfet_01v8_lvt ad=0p pd=0u as=0p ps=0u w=2e+06u l=1e+06u
X192 a_33905_7431# vout sky130_fd_pr__cap_mim_m3_1 l=1.8e+07u w=2.7e+07u
X193 vout.t35 vbias.t108 vdd.t14 vdd sky130_fd_pr__pfet_01v8_lvt ad=0p pd=0u as=0p ps=0u w=2e+06u l=1e+06u
X194 vdd.t13 vbias.t109 vout.t55 vdd sky130_fd_pr__pfet_01v8_lvt ad=0p pd=0u as=0p ps=0u w=2e+06u l=1e+06u
X195 vss.t1 a_30309_3497.t62 a_31253_3585.t0 vss sky130_fd_pr__nfet_01v8_lvt ad=0p pd=0u as=0p ps=0u w=1e+06u l=1e+06u
X196 vout.t25 a_31253_3585.t88 vss.t32 vss sky130_fd_pr__nfet_01v8_lvt ad=0p pd=0u as=0p ps=0u w=1e+06u l=1e+06u
X197 w_30113_5597.t27 vbias.t110 vdd.t12 vdd sky130_fd_pr__pfet_01v8_lvt ad=0p pd=0u as=0p ps=0u w=2e+06u l=1e+06u
X198 a_30309_3497.t3 a_30309_3497.t2 vss.t18 vss sky130_fd_pr__nfet_01v8_lvt ad=0p pd=0u as=0p ps=0u w=1e+06u l=1e+06u
X199 vdd.t11 vbias.t28 vbias.t29 vdd sky130_fd_pr__pfet_01v8_lvt ad=0p pd=0u as=0p ps=0u w=2e+06u l=1e+06u
X200 vss.t31 a_31253_3585.t89 vout.t4 vss sky130_fd_pr__nfet_01v8_lvt ad=0p pd=0u as=0p ps=0u w=1e+06u l=1e+06u
X201 vdd.t10 vbias.t111 w_30113_5597.t26 vdd sky130_fd_pr__pfet_01v8_lvt ad=0p pd=0u as=0p ps=0u w=2e+06u l=1e+06u
X202 w_30113_5597.t9 vp.t14 a_31253_3585.t8 w_30113_5597# sky130_fd_pr__pfet_01v8_lvt ad=0p pd=0u as=0p ps=0u w=4e+06u l=1e+06u
X203 vss.t30 a_31253_3585.t90 vout.t12 vss sky130_fd_pr__nfet_01v8_lvt ad=0p pd=0u as=0p ps=0u w=1e+06u l=1e+06u
X204 vss.t29 a_31253_3585.t91 vout.t11 vss sky130_fd_pr__nfet_01v8_lvt ad=0p pd=0u as=0p ps=0u w=1e+06u l=1e+06u
X205 vout.t39 vbias.t112 vdd.t9 vdd sky130_fd_pr__pfet_01v8_lvt ad=0p pd=0u as=0p ps=0u w=2e+06u l=1e+06u
X206 w_30113_5597.t25 vbias.t113 vdd.t8 vdd sky130_fd_pr__pfet_01v8_lvt ad=0p pd=0u as=0p ps=0u w=2e+06u l=1e+06u
X207 vdd.t7 vbias.t20 vbias.t21 vdd sky130_fd_pr__pfet_01v8_lvt ad=0p pd=0u as=0p ps=0u w=2e+06u l=1e+06u
X208 w_30113_5597.t24 vbias.t114 vdd.t6 vdd sky130_fd_pr__pfet_01v8_lvt ad=0p pd=0u as=0p ps=0u w=2e+06u l=1e+06u
X209 w_30113_5597.t15 vn.t13 a_30309_3497.t39 w_30113_5597# sky130_fd_pr__pfet_01v8_lvt ad=0p pd=0u as=0p ps=0u w=4e+06u l=1e+06u
X210 vdd.t5 vbias.t115 vout.t49 vdd sky130_fd_pr__pfet_01v8_lvt ad=0p pd=0u as=0p ps=0u w=2e+06u l=1e+06u
X211 vout.t65 vbias.t116 vdd.t4 vdd sky130_fd_pr__pfet_01v8_lvt ad=0p pd=0u as=0p ps=0u w=2e+06u l=1e+06u
X212 vss.t16 a_30309_3497.t0 a_30309_3497.t1 vss sky130_fd_pr__nfet_01v8_lvt ad=0p pd=0u as=0p ps=0u w=1e+06u l=1e+06u
X213 vout.t40 vbias.t117 vdd.t3 vdd sky130_fd_pr__pfet_01v8_lvt ad=0p pd=0u as=0p ps=0u w=2e+06u l=1e+06u
X214 vdd.t2 vbias.t10 vbias.t11 vdd sky130_fd_pr__pfet_01v8_lvt ad=0p pd=0u as=0p ps=0u w=2e+06u l=1e+06u
X215 vout.t10 a_31253_3585.t92 vss.t28 vss sky130_fd_pr__nfet_01v8_lvt ad=0p pd=0u as=0p ps=0u w=1e+06u l=1e+06u
X216 vss.t27 a_31253_3585.t93 vout.t95 vss sky130_fd_pr__nfet_01v8_lvt ad=0p pd=0u as=0p ps=0u w=1e+06u l=1e+06u
X217 w_30113_5597.t55 vp.t15 a_31253_3585.t30 w_30113_5597# sky130_fd_pr__pfet_01v8_lvt ad=0p pd=0u as=0p ps=0u w=4e+06u l=1e+06u
X218 vss.t95 a_30309_3497.t63 a_31253_3585.t32 vss sky130_fd_pr__nfet_01v8_lvt ad=0p pd=0u as=0p ps=0u w=1e+06u l=1e+06u
X219 vss.t26 a_31253_3585.t94 vout.t102 vss sky130_fd_pr__nfet_01v8_lvt ad=0p pd=0u as=0p ps=0u w=1e+06u l=1e+06u
X220 w_30113_5597.t5 vn.t14 a_30309_3497.t33 w_30113_5597# sky130_fd_pr__pfet_01v8_lvt ad=0p pd=0u as=0p ps=0u w=4e+06u l=1e+06u
X221 vdd.t1 vbias.t118 vout.t72 vdd sky130_fd_pr__pfet_01v8_lvt ad=0p pd=0u as=0p ps=0u w=2e+06u l=1e+06u
X222 vdd.t0 vbias.t119 vout.t63 vdd sky130_fd_pr__pfet_01v8_lvt ad=0p pd=0u as=0p ps=0u w=2e+06u l=1e+06u
X223 vout.t90 a_31253_3585.t95 vss.t25 vss sky130_fd_pr__nfet_01v8_lvt ad=0p pd=0u as=0p ps=0u w=1e+06u l=1e+06u
X224 vout.t3 a_31253_3585.t96 vss.t24 vss sky130_fd_pr__nfet_01v8_lvt ad=0p pd=0u as=0p ps=0u w=1e+06u l=1e+06u
X225 a_30309_3497.t45 vn.t15 w_30113_5597.t50 w_30113_5597# sky130_fd_pr__pfet_01v8_lvt ad=0p pd=0u as=0p ps=0u w=4e+06u l=1e+06u
C0 vn vp 1.91fF
C1 a_33905_7431# vout 45.77fF
C2 vdd vbias 34.89fF
C3 vdd vout 13.17fF
C4 vbias vout 9.70fF
R0 vbias.n128 vbias.t6 63.632
R1 vbias.n195 vbias.t38 63.63
R2 vbias.n87 vbias.t14 63.63
R3 vbias.n194 vbias.t89 63.63
R4 vbias.n19 vbias.t63 63.63
R5 vbias.n105 vbias.t112 63.63
R6 vbias.n105 vbias.t91 63.63
R7 vbias.n20 vbias.t52 63.63
R8 vbias.n106 vbias.t102 63.63
R9 vbias.n106 vbias.t78 63.63
R10 vbias.n18 vbias.t70 63.63
R11 vbias.n104 vbias.t118 63.63
R12 vbias.n104 vbias.t95 63.63
R13 vbias.n21 vbias.t69 63.63
R14 vbias.n107 vbias.t117 63.63
R15 vbias.n107 vbias.t94 63.63
R16 vbias.n23 vbias.t108 63.63
R17 vbias.n109 vbias.t84 63.63
R18 vbias.n109 vbias.t64 63.63
R19 vbias.n24 vbias.t80 63.63
R20 vbias.n110 vbias.t56 63.63
R21 vbias.n110 vbias.t104 63.63
R22 vbias.n22 vbias.t92 63.63
R23 vbias.n108 vbias.t71 63.63
R24 vbias.n108 vbias.t119 63.63
R25 vbias.n25 vbias.t49 63.63
R26 vbias.n111 vbias.t99 63.63
R27 vbias.n111 vbias.t77 63.63
R28 vbias.n27 vbias.t106 63.63
R29 vbias.n113 vbias.t82 63.63
R30 vbias.n113 vbias.t61 63.63
R31 vbias.n28 vbias.t58 63.63
R32 vbias.n114 vbias.t109 63.63
R33 vbias.n114 vbias.t85 63.63
R34 vbias.n26 vbias.t66 63.63
R35 vbias.n112 vbias.t115 63.63
R36 vbias.n112 vbias.t93 63.63
R37 vbias.n29 vbias.t79 63.63
R38 vbias.n115 vbias.t55 63.63
R39 vbias.n115 vbias.t103 63.63
R40 vbias.n31 vbias.t88 63.63
R41 vbias.n117 vbias.t67 63.63
R42 vbias.n117 vbias.t116 63.63
R43 vbias.n32 vbias.t105 63.63
R44 vbias.n118 vbias.t81 63.63
R45 vbias.n118 vbias.t59 63.63
R46 vbias.n30 vbias.t48 63.63
R47 vbias.n116 vbias.t97 63.63
R48 vbias.n116 vbias.t74 63.63
R49 vbias.n63 vbias.t86 63.63
R50 vbias.n126 vbias.t65 63.63
R51 vbias.n126 vbias.t114 63.63
R52 vbias.n159 vbias.t0 63.63
R53 vbias.n159 vbias.t40 63.63
R54 vbias.n77 vbias.t8 63.63
R55 vbias.n64 vbias.t16 63.63
R56 vbias.n103 vbias.t26 63.63
R57 vbias.n62 vbias.t62 63.63
R58 vbias.n125 vbias.t111 63.63
R59 vbias.n125 vbias.t90 63.63
R60 vbias.n33 vbias.t57 63.63
R61 vbias.n119 vbias.t107 63.63
R62 vbias.n119 vbias.t83 63.63
R63 vbias.n123 vbias.t12 63.63
R64 vbias.n35 vbias.t36 63.63
R65 vbias.n123 vbias.t30 63.63
R66 vbias.n78 vbias.t100 63.63
R67 vbias.n161 vbias.t76 63.63
R68 vbias.n161 vbias.t54 63.63
R69 vbias.n83 vbias.t72 63.63
R70 vbias.n188 vbias.t50 63.63
R71 vbias.n188 vbias.t101 63.63
R72 vbias.n189 vbias.t53 63.63
R73 vbias.n190 vbias.t28 63.63
R74 vbias.n192 vbias.t18 63.63
R75 vbias.n192 vbias.t46 63.63
R76 vbias.n85 vbias.t42 63.63
R77 vbias.n190 vbias.t24 63.63
R78 vbias.n163 vbias.t2 63.63
R79 vbias.n80 vbias.t4 63.63
R80 vbias.n82 vbias.t34 63.63
R81 vbias.n186 vbias.t44 63.63
R82 vbias.n163 vbias.t20 63.63
R83 vbias.n186 vbias.t22 63.63
R84 vbias.n79 vbias.t60 63.63
R85 vbias.n162 vbias.t110 63.63
R86 vbias.n162 vbias.t87 63.63
R87 vbias.n90 vbias.t96 63.63
R88 vbias.n193 vbias.t73 63.63
R89 vbias.n193 vbias.t51 63.63
R90 vbias.n194 vbias.t68 63.63
R91 vbias.n189 vbias.t75 63.63
R92 vbias.n84 vbias.t98 63.63
R93 vbias.n91 vbias.t32 63.63
R94 vbias.n89 vbias.t113 63.63
R95 vbias.n195 vbias.t10 63.63
R96 vbias.n0 vbias.t39 14.295
R97 vbias.n9 vbias.t15 14.295
R98 vbias.n156 vbias.t1 14.295
R99 vbias.n156 vbias.t7 14.295
R100 vbias.n132 vbias.t27 14.295
R101 vbias.n132 vbias.t41 14.295
R102 vbias.n74 vbias.t17 14.295
R103 vbias.n74 vbias.t9 14.295
R104 vbias.n134 vbias.t13 14.295
R105 vbias.n53 vbias.t37 14.295
R106 vbias.n56 vbias.t31 14.295
R107 vbias.n101 vbias.t19 14.295
R108 vbias.n101 vbias.t29 14.295
R109 vbias.n94 vbias.t25 14.295
R110 vbias.n94 vbias.t47 14.295
R111 vbias.n17 vbias.t43 14.295
R112 vbias.n17 vbias.t33 14.295
R113 vbias.n183 vbias.t21 14.295
R114 vbias.n183 vbias.t23 14.295
R115 vbias.n173 vbias.t3 14.295
R116 vbias.n173 vbias.t45 14.295
R117 vbias.n171 vbias.t35 14.295
R118 vbias.n171 vbias.t5 14.295
R119 vbias.n3 vbias.t11 14.295
R120 vbias.n196 vbias.n0 3.25
R121 vbias.n196 vbias.n3 1.139
R122 vbias.n3 vbias.n2 0.874
R123 vbias.n10 vbias.n9 0.87
R124 vbias.n53 vbias.n52 0.823
R125 vbias.n150 vbias.n134 0.823
R126 vbias.n54 vbias.n53 0.594
R127 vbias.n57 vbias.n56 0.58
R128 vbias.n13 vbias.n12 0.577
R129 vbias.n37 vbias.n36 0.575
R130 vbias.n38 vbias.n37 0.575
R131 vbias.n39 vbias.n38 0.575