* NGSPICE file created from OTA.ext - technology: sky130A

.subckt OTA vdd vp vn vbias vss vout (null)
X0 vout.t168 vbias.t24 vdd.t143 vdd sky130_fd_pr__pfet_01v8_lvt ad=0p pd=0u as=0p ps=0u w=4e+06u l=2e+06u
X1 a_n3094_n11100.t11 vp a_n6538_n5412.t7 vdd sky130_fd_pr__pfet_01v8_lvt ad=0p pd=0u as=0p ps=0u w=4e+06u l=350000u
X2 vdd.t142 vbias.t8 vbias.t9 vdd sky130_fd_pr__pfet_01v8_lvt ad=0p pd=0u as=0p ps=0u w=4e+06u l=2e+06u
X3 vout v1 sky130_fd_pr__cap_mim_m3_1 l=1.35e+07u w=1.35e+07u
X4 vss a_n2720_n15566.t6 a_n2720_n15566.t7 vss sky130_fd_pr__nfet_01v8_lvt ad=0p pd=0u as=0p ps=0u w=3e+06u l=350000u
X5 vdd.t141 vbias.t25 vout.t197 vdd sky130_fd_pr__pfet_01v8_lvt ad=0p pd=0u as=0p ps=0u w=4e+06u l=2e+06u
X6 vout.t184 vbias.t26 vdd.t140 vdd sky130_fd_pr__pfet_01v8_lvt ad=0p pd=0u as=0p ps=0u w=4e+06u l=2e+06u
X7 vout.t120 vbias.t27 vdd.t139 vdd sky130_fd_pr__pfet_01v8_lvt ad=0p pd=0u as=0p ps=0u w=4e+06u l=2e+06u
X8 vout.t154 vbias.t28 vdd.t138 vdd sky130_fd_pr__pfet_01v8_lvt ad=0p pd=0u as=0p ps=0u w=4e+06u l=2e+06u
X9 vout.t164 vbias.t29 vdd.t137 vdd sky130_fd_pr__pfet_01v8_lvt ad=0p pd=0u as=0p ps=0u w=4e+06u l=2e+06u
X10 a_n2720_n15566.t5 a_n2720_n15566.t4 vss vss sky130_fd_pr__nfet_01v8_lvt ad=0p pd=0u as=0p ps=0u w=3e+06u l=350000u
X11 a_n6538_n5412.t8 vp a_n3094_n11100.t10 vdd sky130_fd_pr__pfet_01v8_lvt ad=0p pd=0u as=0p ps=0u w=4e+06u l=350000u
X12 vout.t153 vbias.t30 vdd.t136 vdd sky130_fd_pr__pfet_01v8_lvt ad=0p pd=0u as=0p ps=0u w=4e+06u l=2e+06u
X13 vout.t152 vbias.t31 vdd.t135 vdd sky130_fd_pr__pfet_01v8_lvt ad=0p pd=0u as=0p ps=0u w=4e+06u l=2e+06u
X14 vdd.t134 vbias.t32 vout.t151 vdd sky130_fd_pr__pfet_01v8_lvt ad=0p pd=0u as=0p ps=0u w=4e+06u l=2e+06u
X15 vout.t150 vbias.t33 vdd.t133 vdd sky130_fd_pr__pfet_01v8_lvt ad=0p pd=0u as=0p ps=0u w=4e+06u l=2e+06u
X16 vdd.t132 vbias.t34 vout.t196 vdd sky130_fd_pr__pfet_01v8_lvt ad=0p pd=0u as=0p ps=0u w=4e+06u l=2e+06u
X17 vdd.t131 vbias.t35 vout.t119 vdd sky130_fd_pr__pfet_01v8_lvt ad=0p pd=0u as=0p ps=0u w=4e+06u l=2e+06u
X18 vdd.t130 vbias.t36 vout.t183 vdd sky130_fd_pr__pfet_01v8_lvt ad=0p pd=0u as=0p ps=0u w=4e+06u l=2e+06u
X19 vout.t182 vbias.t37 vdd.t129 vdd sky130_fd_pr__pfet_01v8_lvt ad=0p pd=0u as=0p ps=0u w=4e+06u l=2e+06u
X20 vdd.t128 vbias.t38 vout.t149 vdd sky130_fd_pr__pfet_01v8_lvt ad=0p pd=0u as=0p ps=0u w=4e+06u l=2e+06u
X21 vout.t16 vbias.t39 vdd.t127 vdd sky130_fd_pr__pfet_01v8_lvt ad=0p pd=0u as=0p ps=0u w=4e+06u l=2e+06u
X22 vout.t161 vbias.t40 vdd.t126 vdd sky130_fd_pr__pfet_01v8_lvt ad=0p pd=0u as=0p ps=0u w=4e+06u l=2e+06u
X23 vdd.t125 vbias.t41 vout.t148 vdd sky130_fd_pr__pfet_01v8_lvt ad=0p pd=0u as=0p ps=0u w=4e+06u l=2e+06u
X24 vdd.t124 vbias.t42 vout.t15 vdd sky130_fd_pr__pfet_01v8_lvt ad=0p pd=0u as=0p ps=0u w=4e+06u l=2e+06u
X25 vout.t180 vbias.t43 vdd.t123 vdd sky130_fd_pr__pfet_01v8_lvt ad=0p pd=0u as=0p ps=0u w=4e+06u l=2e+06u
X26 vdd.t122 vbias.t44 vout.t147 vdd sky130_fd_pr__pfet_01v8_lvt ad=0p pd=0u as=0p ps=0u w=4e+06u l=2e+06u
X27 vout.t14 vbias.t45 vdd.t121 vdd sky130_fd_pr__pfet_01v8_lvt ad=0p pd=0u as=0p ps=0u w=4e+06u l=2e+06u
X28 a_n6538_n5412.t14 a_n2720_n15566.t20 vss vss sky130_fd_pr__nfet_01v8_lvt ad=0p pd=0u as=0p ps=0u w=3e+06u l=350000u
X29 a_n3094_n11100.t29 vn a_n2720_n15566.t19 vdd sky130_fd_pr__pfet_01v8_lvt ad=0p pd=0u as=0p ps=0u w=4e+06u l=350000u
X30 vout.t179 vbias.t46 vdd.t120 vdd sky130_fd_pr__pfet_01v8_lvt ad=0p pd=0u as=0p ps=0u w=4e+06u l=2e+06u
X31 vss a_n2720_n15566.t21 a_n6538_n5412.t15 vss sky130_fd_pr__nfet_01v8_lvt ad=0p pd=0u as=0p ps=0u w=3e+06u l=350000u
X32 a_n3094_n11100.t9 vp a_n6538_n5412.t4 vdd sky130_fd_pr__pfet_01v8_lvt ad=0p pd=0u as=0p ps=0u w=4e+06u l=350000u
X33 vdd.t119 vbias.t47 vout.t25 vdd sky130_fd_pr__pfet_01v8_lvt ad=0p pd=0u as=0p ps=0u w=4e+06u l=2e+06u
X34 vout a_4381_n15091# (null) sky130_fd_pr__cap_mim_m3_1 l=0u w=0u
X35 vdd.t118 vbias.t48 vout.t146 vdd sky130_fd_pr__pfet_01v8_lvt ad=0p pd=0u as=0p ps=0u w=4e+06u l=2e+06u
X36 vdd.t117 vbias.t49 vout.t13 vdd sky130_fd_pr__pfet_01v8_lvt ad=0p pd=0u as=0p ps=0u w=4e+06u l=2e+06u
X37 a_n2720_n15566.t18 vn a_n3094_n11100.t24 vdd sky130_fd_pr__pfet_01v8_lvt ad=0p pd=0u as=0p ps=0u w=4e+06u l=350000u
X38 vout.t178 vbias.t50 vdd.t116 vdd sky130_fd_pr__pfet_01v8_lvt ad=0p pd=0u as=0p ps=0u w=4e+06u l=2e+06u
X39 a_n2720_n15566.t17 vn a_n3094_n11100.t35 vdd sky130_fd_pr__pfet_01v8_lvt ad=0p pd=0u as=0p ps=0u w=4e+06u l=350000u
X40 a_n6538_n5412.t0 vp a_n3094_n11100.t8 vdd sky130_fd_pr__pfet_01v8_lvt ad=0p pd=0u as=0p ps=0u w=4e+06u l=350000u
X41 vdd.t115 vbias.t51 vout.t145 vdd sky130_fd_pr__pfet_01v8_lvt ad=0p pd=0u as=0p ps=0u w=4e+06u l=2e+06u
X42 vdd.t114 vbias.t52 vout.t12 vdd sky130_fd_pr__pfet_01v8_lvt ad=0p pd=0u as=0p ps=0u w=4e+06u l=2e+06u
X43 vdd.t113 vbias.t53 vout.t177 vdd sky130_fd_pr__pfet_01v8_lvt ad=0p pd=0u as=0p ps=0u w=4e+06u l=2e+06u
X44 vout.t144 vbias.t54 vdd.t112 vdd sky130_fd_pr__pfet_01v8_lvt ad=0p pd=0u as=0p ps=0u w=4e+06u l=2e+06u
X45 vout.t11 vbias.t55 vdd.t111 vdd sky130_fd_pr__pfet_01v8_lvt ad=0p pd=0u as=0p ps=0u w=4e+06u l=2e+06u
X46 vout.t160 vbias.t56 vdd.t110 vdd sky130_fd_pr__pfet_01v8_lvt ad=0p pd=0u as=0p ps=0u w=4e+06u l=2e+06u
X47 vdd.t109 vbias.t57 vout.t143 vdd sky130_fd_pr__pfet_01v8_lvt ad=0p pd=0u as=0p ps=0u w=4e+06u l=2e+06u
X48 vdd.t108 vbias.t58 vout.t10 vdd sky130_fd_pr__pfet_01v8_lvt ad=0p pd=0u as=0p ps=0u w=4e+06u l=2e+06u
X49 vdd.t107 vbias.t59 vout.t176 vdd sky130_fd_pr__pfet_01v8_lvt ad=0p pd=0u as=0p ps=0u w=4e+06u l=2e+06u
X50 vout.t24 vbias.t60 vdd.t106 vdd sky130_fd_pr__pfet_01v8_lvt ad=0p pd=0u as=0p ps=0u w=4e+06u l=2e+06u
X51 vdd.t105 vbias.t61 vout.t142 vdd sky130_fd_pr__pfet_01v8_lvt ad=0p pd=0u as=0p ps=0u w=4e+06u l=2e+06u
X52 a_n3094_n11100.t31 vn a_n2720_n15566.t16 vdd sky130_fd_pr__pfet_01v8_lvt ad=0p pd=0u as=0p ps=0u w=4e+06u l=350000u
X53 vout.t9 vbias.t62 vdd.t104 vdd sky130_fd_pr__pfet_01v8_lvt ad=0p pd=0u as=0p ps=0u w=4e+06u l=2e+06u
X54 vdd.t103 vbias.t63 vout.t22 vdd sky130_fd_pr__pfet_01v8_lvt ad=0p pd=0u as=0p ps=0u w=4e+06u l=2e+06u
X55 vout.t141 vbias.t64 vdd.t102 vdd sky130_fd_pr__pfet_01v8_lvt ad=0p pd=0u as=0p ps=0u w=4e+06u l=2e+06u
X56 vdd.t101 vbias.t65 vout.t8 vdd sky130_fd_pr__pfet_01v8_lvt ad=0p pd=0u as=0p ps=0u w=4e+06u l=2e+06u
X57 vdd.t100 vbias.t66 vout.t175 vdd sky130_fd_pr__pfet_01v8_lvt ad=0p pd=0u as=0p ps=0u w=4e+06u l=2e+06u
X58 vout.t23 vbias.t67 vdd.t99 vdd sky130_fd_pr__pfet_01v8_lvt ad=0p pd=0u as=0p ps=0u w=4e+06u l=2e+06u
X59 vout.t140 vbias.t68 vdd.t98 vdd sky130_fd_pr__pfet_01v8_lvt ad=0p pd=0u as=0p ps=0u w=4e+06u l=2e+06u
X60 vdd.t97 vbias.t69 vout.t7 vdd sky130_fd_pr__pfet_01v8_lvt ad=0p pd=0u as=0p ps=0u w=4e+06u l=2e+06u
X61 a_n3094_n11100.t7 vp a_n6538_n5412.t3 vdd sky130_fd_pr__pfet_01v8_lvt ad=0p pd=0u as=0p ps=0u w=4e+06u l=350000u
X62 vout.t174 vbias.t70 vdd.t96 vdd sky130_fd_pr__pfet_01v8_lvt ad=0p pd=0u as=0p ps=0u w=4e+06u l=2e+06u
X63 vout.t139 vbias.t71 vdd.t95 vdd sky130_fd_pr__pfet_01v8_lvt ad=0p pd=0u as=0p ps=0u w=4e+06u l=2e+06u
X64 vout.t17 vbias.t72 vdd.t94 vdd sky130_fd_pr__pfet_01v8_lvt ad=0p pd=0u as=0p ps=0u w=4e+06u l=2e+06u
X65 vdd.t93 vbias.t73 vout.t6 vdd sky130_fd_pr__pfet_01v8_lvt ad=0p pd=0u as=0p ps=0u w=4e+06u l=2e+06u
X66 vout.t173 vbias.t74 vdd.t92 vdd sky130_fd_pr__pfet_01v8_lvt ad=0p pd=0u as=0p ps=0u w=4e+06u l=2e+06u
X67 vout.t138 vbias.t75 vdd.t91 vdd sky130_fd_pr__pfet_01v8_lvt ad=0p pd=0u as=0p ps=0u w=4e+06u l=2e+06u
X68 vout.t167 vbias.t76 vdd.t90 vdd sky130_fd_pr__pfet_01v8_lvt ad=0p pd=0u as=0p ps=0u w=4e+06u l=2e+06u
X69 vout.t137 vbias.t77 vdd.t89 vdd sky130_fd_pr__pfet_01v8_lvt ad=0p pd=0u as=0p ps=0u w=4e+06u l=2e+06u
X70 vout.t136 vbias.t78 vdd.t88 vdd sky130_fd_pr__pfet_01v8_lvt ad=0p pd=0u as=0p ps=0u w=4e+06u l=2e+06u
X71 vdd.t87 vbias.t79 vout.t18 vdd sky130_fd_pr__pfet_01v8_lvt ad=0p pd=0u as=0p ps=0u w=4e+06u l=2e+06u
X72 vout.t135 vbias.t80 vdd.t86 vdd sky130_fd_pr__pfet_01v8_lvt ad=0p pd=0u as=0p ps=0u w=4e+06u l=2e+06u
X73 a_n6538_n5412.t1 vp a_n3094_n11100.t6 vdd sky130_fd_pr__pfet_01v8_lvt ad=0p pd=0u as=0p ps=0u w=4e+06u l=350000u
X74 vout.t113 vbias.t81 vdd.t85 vdd sky130_fd_pr__pfet_01v8_lvt ad=0p pd=0u as=0p ps=0u w=4e+06u l=2e+06u
X75 vout.t163 vbias.t82 vdd.t84 vdd sky130_fd_pr__pfet_01v8_lvt ad=0p pd=0u as=0p ps=0u w=4e+06u l=2e+06u
X76 vout.t166 vbias.t83 vdd.t83 vdd sky130_fd_pr__pfet_01v8_lvt ad=0p pd=0u as=0p ps=0u w=4e+06u l=2e+06u
X77 vdd.t82 vbias.t84 vout.t195 vdd sky130_fd_pr__pfet_01v8_lvt ad=0p pd=0u as=0p ps=0u w=4e+06u l=2e+06u
X78 vdd.t81 vbias.t85 vout.t112 vdd sky130_fd_pr__pfet_01v8_lvt ad=0p pd=0u as=0p ps=0u w=4e+06u l=2e+06u
X79 vdd.t80 vbias.t86 vout.t1 vdd sky130_fd_pr__pfet_01v8_lvt ad=0p pd=0u as=0p ps=0u w=4e+06u l=2e+06u
X80 vdd.t79 vbias.t87 vout.t21 vdd sky130_fd_pr__pfet_01v8_lvt ad=0p pd=0u as=0p ps=0u w=4e+06u l=2e+06u
X81 a_n3094_n11100.t25 vn a_n2720_n15566.t15 vdd sky130_fd_pr__pfet_01v8_lvt ad=0p pd=0u as=0p ps=0u w=4e+06u l=350000u
X82 vdd.t78 vbias.t88 vout.t5 vdd sky130_fd_pr__pfet_01v8_lvt ad=0p pd=0u as=0p ps=0u w=4e+06u l=2e+06u
X83 a_n3094_n11100.t5 vp a_n6538_n5412.t11 vdd sky130_fd_pr__pfet_01v8_lvt ad=0p pd=0u as=0p ps=0u w=4e+06u l=350000u
X84 a_n2720_n15566.t14 vn a_n3094_n11100.t26 vdd sky130_fd_pr__pfet_01v8_lvt ad=0p pd=0u as=0p ps=0u w=4e+06u l=350000u
X85 vout.t111 vbias.t89 vdd.t77 vdd sky130_fd_pr__pfet_01v8_lvt ad=0p pd=0u as=0p ps=0u w=4e+06u l=2e+06u
X86 a_n6538_n5412.t5 vp a_n3094_n11100.t4 vdd sky130_fd_pr__pfet_01v8_lvt ad=0p pd=0u as=0p ps=0u w=4e+06u l=350000u
X87 vdd.t76 vbias.t90 vout.t134 vdd sky130_fd_pr__pfet_01v8_lvt ad=0p pd=0u as=0p ps=0u w=4e+06u l=2e+06u
X88 vdd.t75 vbias.t10 vbias.t11 vdd sky130_fd_pr__pfet_01v8_lvt ad=0p pd=0u as=0p ps=0u w=4e+06u l=2e+06u
X89 vdd.t74 vbias.t91 vout.t4 vdd sky130_fd_pr__pfet_01v8_lvt ad=0p pd=0u as=0p ps=0u w=4e+06u l=2e+06u
X90 vout.t110 vbias.t92 vdd.t73 vdd sky130_fd_pr__pfet_01v8_lvt ad=0p pd=0u as=0p ps=0u w=4e+06u l=2e+06u
X91 vdd.t72 vbias.t93 vout.t133 vdd sky130_fd_pr__pfet_01v8_lvt ad=0p pd=0u as=0p ps=0u w=4e+06u l=2e+06u
X92 vbias.t13 vbias.t12 vdd.t71 vdd sky130_fd_pr__pfet_01v8_lvt ad=0p pd=0u as=0p ps=0u w=4e+06u l=2e+06u
X93 a_n2720_n15566.t13 vn a_n3094_n11100.t32 vdd sky130_fd_pr__pfet_01v8_lvt ad=0p pd=0u as=0p ps=0u w=4e+06u l=350000u
X94 vout.t132 vbias.t94 vdd.t70 vdd sky130_fd_pr__pfet_01v8_lvt ad=0p pd=0u as=0p ps=0u w=4e+06u l=2e+06u
X95 vdd.t69 vbias.t95 vout.t131 vdd sky130_fd_pr__pfet_01v8_lvt ad=0p pd=0u as=0p ps=0u w=4e+06u l=2e+06u
X96 vss a_n2720_n15566.t22 a_n6538_n5412.t13 vss sky130_fd_pr__nfet_01v8_lvt ad=0p pd=0u as=0p ps=0u w=3e+06u l=350000u
X97 a_n3094_n11100.t23 vbias.t96 vdd.t68 vdd sky130_fd_pr__pfet_01v8_lvt ad=0p pd=0u as=0p ps=0u w=4e+06u l=2e+06u
X98 vout.t187 vbias.t97 vdd.t67 vdd sky130_fd_pr__pfet_01v8_lvt ad=0p pd=0u as=0p ps=0u w=4e+06u l=2e+06u
X99 vbias.t15 vbias.t14 vdd.t66 vdd sky130_fd_pr__pfet_01v8_lvt ad=0p pd=0u as=0p ps=0u w=4e+06u l=2e+06u
X100 vout.t109 vbias.t98 vdd.t65 vdd sky130_fd_pr__pfet_01v8_lvt ad=0p pd=0u as=0p ps=0u w=4e+06u l=2e+06u
X101 vdd.t64 vbias.t99 vout.t118 vdd sky130_fd_pr__pfet_01v8_lvt ad=0p pd=0u as=0p ps=0u w=4e+06u l=2e+06u
X102 vout.t165 vbias.t100 vdd.t63 vdd sky130_fd_pr__pfet_01v8_lvt ad=0p pd=0u as=0p ps=0u w=4e+06u l=2e+06u
X103 a_n3094_n11100.t27 vn a_n2720_n15566.t12 vdd sky130_fd_pr__pfet_01v8_lvt ad=0p pd=0u as=0p ps=0u w=4e+06u l=350000u
X104 a_n3094_n11100.t22 vbias.t101 vdd.t62 vdd sky130_fd_pr__pfet_01v8_lvt ad=0p pd=0u as=0p ps=0u w=4e+06u l=2e+06u
X105 vdd.t61 vbias.t102 vout.t186 vdd sky130_fd_pr__pfet_01v8_lvt ad=0p pd=0u as=0p ps=0u w=4e+06u l=2e+06u
X106 vout.t108 vbias.t103 vdd.t60 vdd sky130_fd_pr__pfet_01v8_lvt ad=0p pd=0u as=0p ps=0u w=4e+06u l=2e+06u
X107 vdd.t59 vbias.t104 vout.t117 vdd sky130_fd_pr__pfet_01v8_lvt ad=0p pd=0u as=0p ps=0u w=4e+06u l=2e+06u
X108 vdd.t58 vbias.t105 vout.t3 vdd sky130_fd_pr__pfet_01v8_lvt ad=0p pd=0u as=0p ps=0u w=4e+06u l=2e+06u
X109 vss a_n2720_n15566.t2 a_n2720_n15566.t3 vss sky130_fd_pr__nfet_01v8_lvt ad=0p pd=0u as=0p ps=0u w=3e+06u l=350000u
X110 vout.t107 vbias.t106 vdd.t57 vdd sky130_fd_pr__pfet_01v8_lvt ad=0p pd=0u as=0p ps=0u w=4e+06u l=2e+06u
X111 a_n2720_n15566.t1 a_n2720_n15566.t0 vss vss sky130_fd_pr__nfet_01v8_lvt ad=0p pd=0u as=0p ps=0u w=3e+06u l=350000u
X112 vdd.t56 vbias.t16 vbias.t17 vdd sky130_fd_pr__pfet_01v8_lvt ad=0p pd=0u as=0p ps=0u w=4e+06u l=2e+06u
X113 a_n3094_n11100.t3 vp a_n6538_n5412.t6 vdd sky130_fd_pr__pfet_01v8_lvt ad=0p pd=0u as=0p ps=0u w=4e+06u l=350000u
X114 vbias.t1 vbias.t0 vdd.t55 vdd sky130_fd_pr__pfet_01v8_lvt ad=0p pd=0u as=0p ps=0u w=4e+06u l=2e+06u
X115 vdd.t54 vbias.t107 vout.t130 vdd sky130_fd_pr__pfet_01v8_lvt ad=0p pd=0u as=0p ps=0u w=4e+06u l=2e+06u
X116 vout.t2 vbias.t108 vdd.t53 vdd sky130_fd_pr__pfet_01v8_lvt ad=0p pd=0u as=0p ps=0u w=4e+06u l=2e+06u
X117 vdd.t52 vbias.t109 a_n3094_n11100.t21 vdd sky130_fd_pr__pfet_01v8_lvt ad=0p pd=0u as=0p ps=0u w=4e+06u l=2e+06u
X118 vdd.t51 vbias.t2 vbias.t3 vdd sky130_fd_pr__pfet_01v8_lvt ad=0p pd=0u as=0p ps=0u w=4e+06u l=2e+06u
X119 vbias.t19 vbias.t18 vdd.t50 vdd sky130_fd_pr__pfet_01v8_lvt ad=0p pd=0u as=0p ps=0u w=4e+06u l=2e+06u
X120 vdd.t49 vbias.t110 a_n3094_n11100.t20 vdd sky130_fd_pr__pfet_01v8_lvt ad=0p pd=0u as=0p ps=0u w=4e+06u l=2e+06u
X121 vbias.t5 vbias.t4 vdd.t48 vdd sky130_fd_pr__pfet_01v8_lvt ad=0p pd=0u as=0p ps=0u w=4e+06u l=2e+06u
X122 vout.t20 vbias.t111 vdd.t47 vdd sky130_fd_pr__pfet_01v8_lvt ad=0p pd=0u as=0p ps=0u w=4e+06u l=2e+06u
X123 vbias.t23 vbias.t22 vdd.t46 vdd sky130_fd_pr__pfet_01v8_lvt ad=0p pd=0u as=0p ps=0u w=4e+06u l=2e+06u
X124 a_n6538_n5412.t12 a_n2720_n15566.t23 vss vss sky130_fd_pr__nfet_01v8_lvt ad=0p pd=0u as=0p ps=0u w=3e+06u l=350000u
X125 vdd.t45 vbias.t112 a_n3094_n11100.t19 vdd sky130_fd_pr__pfet_01v8_lvt ad=0p pd=0u as=0p ps=0u w=4e+06u l=2e+06u
X126 vdd.t44 vbias.t113 vout.t162 vdd sky130_fd_pr__pfet_01v8_lvt ad=0p pd=0u as=0p ps=0u w=4e+06u l=2e+06u
X127 vout.t0 vbias.t114 vdd.t43 vdd sky130_fd_pr__pfet_01v8_lvt ad=0p pd=0u as=0p ps=0u w=4e+06u l=2e+06u
X128 a_n6538_n5412.t2 vp a_n3094_n11100.t2 vdd sky130_fd_pr__pfet_01v8_lvt ad=0p pd=0u as=0p ps=0u w=4e+06u l=350000u
X129 vout.t19 vbias.t115 vdd.t42 vdd sky130_fd_pr__pfet_01v8_lvt ad=0p pd=0u as=0p ps=0u w=4e+06u l=2e+06u
X130 vout.t185 vbias.t116 vdd.t41 vdd sky130_fd_pr__pfet_01v8_lvt ad=0p pd=0u as=0p ps=0u w=4e+06u l=2e+06u
X131 vdd.t40 vbias.t117 vout.t172 vdd sky130_fd_pr__pfet_01v8_lvt ad=0p pd=0u as=0p ps=0u w=4e+06u l=2e+06u
X132 a_n3094_n11100.t33 vn a_n2720_n15566.t11 vdd sky130_fd_pr__pfet_01v8_lvt ad=0p pd=0u as=0p ps=0u w=4e+06u l=350000u
X133 vdd.t39 vbias.t118 vout.t129 vdd sky130_fd_pr__pfet_01v8_lvt ad=0p pd=0u as=0p ps=0u w=4e+06u l=2e+06u
X134 vout.t159 vbias.t119 vdd.t38 vdd sky130_fd_pr__pfet_01v8_lvt ad=0p pd=0u as=0p ps=0u w=4e+06u l=2e+06u
X135 a_n3094_n11100.t1 vp a_n6538_n5412.t9 vdd sky130_fd_pr__pfet_01v8_lvt ad=0p pd=0u as=0p ps=0u w=4e+06u l=350000u
X136 vdd.t37 vbias.t120 vout.t128 vdd sky130_fd_pr__pfet_01v8_lvt ad=0p pd=0u as=0p ps=0u w=4e+06u l=2e+06u
X137 vout.t127 vbias.t121 vdd.t36 vdd sky130_fd_pr__pfet_01v8_lvt ad=0p pd=0u as=0p ps=0u w=4e+06u l=2e+06u
X138 vout.t199 vbias.t122 vdd.t35 vdd sky130_fd_pr__pfet_01v8_lvt ad=0p pd=0u as=0p ps=0u w=4e+06u l=2e+06u
X139 vdd.t34 vbias.t123 vout.t171 vdd sky130_fd_pr__pfet_01v8_lvt ad=0p pd=0u as=0p ps=0u w=4e+06u l=2e+06u
X140 vdd.t33 vbias.t124 vout.t106 vdd sky130_fd_pr__pfet_01v8_lvt ad=0p pd=0u as=0p ps=0u w=4e+06u l=2e+06u
X141 vdd.t32 vbias.t125 vout.t126 vdd sky130_fd_pr__pfet_01v8_lvt ad=0p pd=0u as=0p ps=0u w=4e+06u l=2e+06u
X142 vout.t156 vbias.t126 vdd.t31 vdd sky130_fd_pr__pfet_01v8_lvt ad=0p pd=0u as=0p ps=0u w=4e+06u l=2e+06u
X143 vdd.t30 vbias.t127 vout.t158 vdd sky130_fd_pr__pfet_01v8_lvt ad=0p pd=0u as=0p ps=0u w=4e+06u l=2e+06u
X144 a_n6538_n5814# v1 vss sky130_fd_pr__res_xhigh_po w=350000u l=500000u
X145 vdd.t29 vbias.t20 vbias.t21 vdd sky130_fd_pr__pfet_01v8_lvt ad=0p pd=0u as=0p ps=0u w=4e+06u l=2e+06u
X146 vdd.t28 vbias.t128 vout.t194 vdd sky130_fd_pr__pfet_01v8_lvt ad=0p pd=0u as=0p ps=0u w=4e+06u l=2e+06u
X147 a_n2720_n15566.t10 vn a_n3094_n11100.t30 vdd sky130_fd_pr__pfet_01v8_lvt ad=0p pd=0u as=0p ps=0u w=4e+06u l=350000u
X148 a_n3094_n11100.t18 vbias.t129 vdd.t27 vdd sky130_fd_pr__pfet_01v8_lvt ad=0p pd=0u as=0p ps=0u w=4e+06u l=2e+06u
X149 vout.t116 vbias.t130 vdd.t26 vdd sky130_fd_pr__pfet_01v8_lvt ad=0p pd=0u as=0p ps=0u w=4e+06u l=2e+06u
X150 a_n6538_n5412.t10 vp a_n3094_n11100.t0 vdd sky130_fd_pr__pfet_01v8_lvt ad=0p pd=0u as=0p ps=0u w=4e+06u l=350000u
X151 vdd.t25 vbias.t131 vout.t181 vdd sky130_fd_pr__pfet_01v8_lvt ad=0p pd=0u as=0p ps=0u w=4e+06u l=2e+06u
X152 vdd.t24 vbias.t6 vbias.t7 vdd sky130_fd_pr__pfet_01v8_lvt ad=0p pd=0u as=0p ps=0u w=4e+06u l=2e+06u
X153 vdd.t23 vbias.t132 vout.t157 vdd sky130_fd_pr__pfet_01v8_lvt ad=0p pd=0u as=0p ps=0u w=4e+06u l=2e+06u
X154 a_n2720_n15566.t9 vn a_n3094_n11100.t28 vdd sky130_fd_pr__pfet_01v8_lvt ad=0p pd=0u as=0p ps=0u w=4e+06u l=350000u
X155 vout.t155 vbias.t133 vdd.t22 vdd sky130_fd_pr__pfet_01v8_lvt ad=0p pd=0u as=0p ps=0u w=4e+06u l=2e+06u
X156 vdd.t21 vbias.t134 vout.t191 vdd sky130_fd_pr__pfet_01v8_lvt ad=0p pd=0u as=0p ps=0u w=4e+06u l=2e+06u
X157 vout.t193 vbias.t135 vdd.t20 vdd sky130_fd_pr__pfet_01v8_lvt ad=0p pd=0u as=0p ps=0u w=4e+06u l=2e+06u
X158 vdd.t19 vbias.t136 vout.t198 vdd sky130_fd_pr__pfet_01v8_lvt ad=0p pd=0u as=0p ps=0u w=4e+06u l=2e+06u
X159 vout.t189 vbias.t137 vdd.t18 vdd sky130_fd_pr__pfet_01v8_lvt ad=0p pd=0u as=0p ps=0u w=4e+06u l=2e+06u
X160 vdd.t17 vbias.t138 vout.t169 vdd sky130_fd_pr__pfet_01v8_lvt ad=0p pd=0u as=0p ps=0u w=4e+06u l=2e+06u
X161 a_n3094_n11100.t34 vn a_n2720_n15566.t8 vdd sky130_fd_pr__pfet_01v8_lvt ad=0p pd=0u as=0p ps=0u w=4e+06u l=350000u
X162 vout.t115 vbias.t139 vdd.t16 vdd sky130_fd_pr__pfet_01v8_lvt ad=0p pd=0u as=0p ps=0u w=4e+06u l=2e+06u
X163 vdd.t15 vbias.t140 vout.t190 vdd sky130_fd_pr__pfet_01v8_lvt ad=0p pd=0u as=0p ps=0u w=4e+06u l=2e+06u
X164 vdd.t14 vbias.t141 vout.t192 vdd sky130_fd_pr__pfet_01v8_lvt ad=0p pd=0u as=0p ps=0u w=4e+06u l=2e+06u
X165 a_n3094_n11100.t17 vbias.t142 vdd.t13 vdd sky130_fd_pr__pfet_01v8_lvt ad=0p pd=0u as=0p ps=0u w=4e+06u l=2e+06u
X166 vdd.t12 vbias.t143 vout.t188 vdd sky130_fd_pr__pfet_01v8_lvt ad=0p pd=0u as=0p ps=0u w=4e+06u l=2e+06u
X167 vdd.t11 vbias.t144 vout.t114 vdd sky130_fd_pr__pfet_01v8_lvt ad=0p pd=0u as=0p ps=0u w=4e+06u l=2e+06u
X168 vdd.t10 vbias.t145 vout.t125 vdd sky130_fd_pr__pfet_01v8_lvt ad=0p pd=0u as=0p ps=0u w=4e+06u l=2e+06u
X169 vout.t124 vbias.t146 vdd.t9 vdd sky130_fd_pr__pfet_01v8_lvt ad=0p pd=0u as=0p ps=0u w=4e+06u l=2e+06u
X170 a_n3094_n11100.t16 vbias.t147 vdd.t8 vdd sky130_fd_pr__pfet_01v8_lvt ad=0p pd=0u as=0p ps=0u w=4e+06u l=2e+06u
X171 vdd.t7 vbias.t148 a_n3094_n11100.t15 vdd sky130_fd_pr__pfet_01v8_lvt ad=0p pd=0u as=0p ps=0u w=4e+06u l=2e+06u
X172 vout.t123 vbias.t149 vdd.t6 vdd sky130_fd_pr__pfet_01v8_lvt ad=0p pd=0u as=0p ps=0u w=4e+06u l=2e+06u
X173 vout.t170 vbias.t150 vdd.t5 vdd sky130_fd_pr__pfet_01v8_lvt ad=0p pd=0u as=0p ps=0u w=4e+06u l=2e+06u
X174 vdd.t4 vbias.t151 vout.t122 vdd sky130_fd_pr__pfet_01v8_lvt ad=0p pd=0u as=0p ps=0u w=4e+06u l=2e+06u
X175 a_n3094_n11100.t14 vbias.t152 vdd.t3 vdd sky130_fd_pr__pfet_01v8_lvt ad=0p pd=0u as=0p ps=0u w=4e+06u l=2e+06u
X176 vdd.t2 vbias.t153 a_n3094_n11100.t13 vdd sky130_fd_pr__pfet_01v8_lvt ad=0p pd=0u as=0p ps=0u w=4e+06u l=2e+06u
X177 vdd.t1 vbias.t154 vout.t121 vdd sky130_fd_pr__pfet_01v8_lvt ad=0p pd=0u as=0p ps=0u w=4e+06u l=2e+06u
X178 vdd.t0 vbias.t155 a_n3094_n11100.t12 vdd sky130_fd_pr__pfet_01v8_lvt ad=0p pd=0u as=0p ps=0u w=4e+06u l=2e+06u
C0 vp vn 3.40fF
C1 vp vdd 1.01fF
C2 vdd vn 1.14fF
C3 vdd vout 18.72fF
C4 vbias vout 33.79fF
C5 vbias vdd 48.38fF
C6 vp a_n6538_n5814# 6.34fF
C7 vn a_n6538_n5814# 3.19fF
C8 a_n6538_n5814# vout 30.89fF
C9 vdd a_n6538_n5814# 4.59fF
C10 vbias a_n6538_n5814# 2.23fF
C11 v1 vout 18.79fF
R0 a_n6538_n5412.n4 a_n6538_n5412.t7 7.146
R1 a_n6538_n5412.n4 a_n6538_n5412.t10 7.146
R2 a_n6538_n5412.n4 a_n6538_n5412.t6 7.146
R3 a_n6538_n5412.n3 a_n6538_n5412.t5 7.146
R4 a_n6538_n5412.n3 a_n6538_n5412.t3 7.146
R5 a_n6538_n5412.n2 a_n6538_n5412.t8 7.146
R6 a_n6538_n5412.n2 a_n6538_n5412.t9 7.146
R7 a_n6538_n5412.n2 a_n6538_n5412.t1 7.146
R8 a_n6538_n5412.n2 a_n6538_n5412.t4 7.146
R9 a_n6538_n5412.n1 a_n6538_n5412.t2 7.146
R10 a_n6538_n5412.n1 a_n6538_n5412.t11 7.146
R11 a_n6538_n5412.t0 a_n6538_n5412.n4 7.146
R12 a_n6538_n5412.n0 a_n6538_n5412.t13 5.807
R13 a_n6538_n5412.n0 a_n6538_n5412.t14 5.807
R14 a_n6538_n5412.n0 a_n6538_n5412.t15 5.807
R15 a_n6538_n5412.n0 a_n6538_n5412.t12 5.807
R16 a_n6538_n5412.n5 a_n6538_n5412.n0 2.553
R17 a_n6538_n5412.n4 a_n6538_n5412.n3 1.654
R18 a_n6538_n5412.n2 a_n6538_n5412.n1 1.654
R19 a_n6538_n5412.n5 a_n6538_n5412.n2 1.314
R20 a_n6538_n5412.n3 a_n6538_n5412.n5 1.313
R21 vout.n43 vout.t197 8.632
R22 vout.n63 vout.t115 8.597
R23 vout.n103 vout.t129 8.211
R24 vout.n9 vout.t19 8.211
R25 vout.n104 vout.t195 7.146
R26 vout.n103 vout.t158 7.146
R27 vout.n102 vout.t192 7.146
R28 vout.n102 vout.t14 7.146
R29 vout.n101 vout.t4 7.146
R30 vout.n101 vout.t137 7.146
R31 vout.n100 vout.t5 7.146
R32 vout.n100 vout.t17 7.146
R33 vout.n99 vout.t21 7.146
R34 vout.n99 vout.t107 7.146
R35 vout.n98 vout.t145 7.146
R36 vout.n98 vout.t153 7.146
R37 vout.n97 vout.t146 7.146
R38 vout.n97 vout.t184 7.146
R39 vout.n96 vout.t119 7.146
R40 vout.n96 vout.t167 7.146
R41 vout.n95 vout.t15 7.146
R42 vout.n95 vout.t187 7.146
R43 vout.n94 vout.t196 7.146
R44 vout.n94 vout.t110 7.146
R45 vout.n93 vout.t186 7.146
R46 vout.n93 vout.t155 7.146
R47 vout.n92 vout.t106 7.146
R48 vout.n92 vout.t24 7.146
R49 vout.n91 vout.t172 7.146
R50 vout.n91 vout.t144 7.146
R51 vout.n90 vout.t118 7.146
R52 vout.n90 vout.t166 7.146
R53 vout.n89 vout.t181 7.146
R54 vout.n89 vout.t189 7.146
R55 vout.n88 vout.t126 7.146
R56 vout.n88 vout.t193 7.146
R57 vout.n87 vout.t149 7.146
R58 vout.n87 vout.t23 7.146
R59 vout.n86 vout.t131 7.146
R60 vout.n86 vout.t163 7.146
R61 vout.n85 vout.t134 7.146
R62 vout.n85 vout.t136 7.146
R63 vout.n84 vout.t114 7.146
R64 vout.n84 vout.t199 7.146
R65 vout.n83 vout.t147 7.146
R66 vout.n83 vout.t16 7.146
R67 vout.n82 vout.t183 7.146
R68 vout.n82 vout.t152 7.146
R69 vout.n80 vout.t143 7.146
R70 vout.n80 vout.t113 7.146
R71 vout.n79 vout.t25 7.146
R72 vout.n79 vout.t168 7.146
R73 vout.n78 vout.t148 7.146
R74 vout.n78 vout.t170 7.146
R75 vout.n73 vout.t162 7.146
R76 vout.n73 vout.t120 7.146
R77 vout.n72 vout.t194 7.146
R78 vout.n72 vout.t140 7.146
R79 vout.n71 vout.t128 7.146
R80 vout.n71 vout.t9 7.146
R81 vout.n64 vout.t109 7.146
R82 vout.n63 vout.t124 7.146
R83 vout.n44 vout.t3 7.146
R84 vout.n43 vout.t151 7.146
R85 vout.n36 vout.t125 7.146
R86 vout.n36 vout.t0 7.146
R87 vout.n35 vout.t169 7.146
R88 vout.n35 vout.t20 7.146
R89 vout.n34 vout.t191 7.146
R90 vout.n34 vout.t2 7.146
R91 vout.n29 vout.t112 7.146
R92 vout.n29 vout.t179 7.146
R93 vout.n28 vout.t142 7.146
R94 vout.n28 vout.t159 7.146
R95 vout.n27 vout.t177 7.146
R96 vout.n27 vout.t185 7.146
R97 vout.n25 vout.t171 7.146
R98 vout.n25 vout.t108 7.146
R99 vout.n24 vout.t122 7.146
R100 vout.n24 vout.t161 7.146
R101 vout.n23 vout.t190 7.146
R102 vout.n23 vout.t150 7.146
R103 vout.n22 vout.t133 7.146
R104 vout.n22 vout.t139 7.146
R105 vout.n21 vout.t188 7.146
R106 vout.n21 vout.t182 7.146
R107 vout.n20 vout.t198 7.146
R108 vout.n20 vout.t154 7.146
R109 vout.n19 vout.t121 7.146
R110 vout.n19 vout.t156 7.146
R111 vout.n18 vout.t175 7.146
R112 vout.n18 vout.t135 7.146
R113 vout.n17 vout.t176 7.146
R114 vout.n17 vout.t173 7.146
R115 vout.n16 vout.t18 7.146
R116 vout.n16 vout.t116 7.146
R117 vout.n15 vout.t6 7.146
R118 vout.n15 vout.t141 7.146
R119 vout.n14 vout.t7 7.146
R120 vout.n14 vout.t11 7.146
R121 vout.n2 vout.t157 7.146
R122 vout.n2 vout.t165 7.146
R123 vout.n1 vout.t130 7.146
R124 vout.n1 vout.t160 7.146
R125 vout.n0 vout.t117 7.146
R126 vout.n0 vout.t178 7.146
R127 vout.n5 vout.t1 7.146
R128 vout.n5 vout.t164 7.146
R129 vout.n4 vout.t8 7.146
R130 vout.n4 vout.t132 7.146
R131 vout.n3 vout.t10 7.146
R132 vout.n3 vout.t111 7.146
R133 vout.n8 vout.t13 7.146
R134 vout.n8 vout.t123 7.146
R135 vout.n7 vout.t22 7.146
R136 vout.n7 vout.t138 7.146
R137 vout.n6 vout.t12 7.146
R138 vout.n6 vout.t174 7.146
R139 vout.n10 vout.t180 7.146
R140 vout.n9 vout.t127 7.146
R141 vout.n26 vout.t71 6.774
R142 vout.n81 vout.t102 6.774
R143 vout.n26 vout.t101 5.807
R144 vout.n31 vout.t103 5.807
R145 vout.n31 vout.t38 5.807
R146 vout.n30 vout.t73 5.807
R147 vout.n30 vout.t85 5.807
R148 vout.n33 vout.t95 5.807
R149 vout.n33 vout.t90 5.807
R150 vout.n32 vout.t65 5.807
R151 vout.n32 vout.t57 5.807
R152 vout.n38 vout.t99 5.807
R153 vout.n38 vout.t87 5.807
R154 vout.n37 vout.t68 5.807
R155 vout.n37 vout.t52 5.807
R156 vout.n40 vout.t58 5.807
R157 vout.n40 vout.t88 5.807
R158 vout.n39 vout.t27 5.807
R159 vout.n39 vout.t54 5.807
R160 vout.n42 vout.t62 5.807
R161 vout.n42 vout.t76 5.807
R162 vout.n41 vout.t32 5.807
R163 vout.n41 vout.t42 5.807
R164 vout.n46 vout.t29 5.807
R165 vout.n46 vout.t78 5.807
R166 vout.n45 vout.t79 5.807
R167 vout.n45 vout.t44 5.807
R168 vout.n48 vout.t49 5.807
R169 vout.n48 vout.t63 5.807
R170 vout.n47 vout.t96 5.807
R171 vout.n47 vout.t33 5.807
R172 vout.n50 vout.t46 5.807
R173 vout.n50 vout.t60 5.807
R174 vout.n49 vout.t93 5.807
R175 vout.n49 vout.t30 5.807
R176 vout.n52 vout.t74 5.807
R177 vout.n52 vout.t59 5.807
R178 vout.n51 vout.t41 5.807
R179 vout.n51 vout.t28 5.807
R180 vout.n54 vout.t72 5.807
R181 vout.n54 vout.t56 5.807
R182 vout.n53 vout.t40 5.807
R183 vout.n53 vout.t26 5.807
R184 vout.n56 vout.t80 5.807
R185 vout.n56 vout.t66 5.807
R186 vout.n55 vout.t45 5.807
R187 vout.n55 vout.t35 5.807
R188 vout.n58 vout.t77 5.807
R189 vout.n58 vout.t89 5.807
R190 vout.n57 vout.t43 5.807
R191 vout.n57 vout.t55 5.807
R192 vout.n60 vout.t83 5.807
R193 vout.n60 vout.t92 5.807
R194 vout.n59 vout.t48 5.807
R195 vout.n59 vout.t64 5.807
R196 vout.n62 vout.t105 5.807
R197 vout.n62 vout.t91 5.807
R198 vout.n61 vout.t75 5.807
R199 vout.n61 vout.t61 5.807
R200 vout.n66 vout.t34 5.807
R201 vout.n66 vout.t100 5.807
R202 vout.n65 vout.t82 5.807
R203 vout.n65 vout.t70 5.807
R204 vout.n68 vout.t31 5.807
R205 vout.n68 vout.t97 5.807
R206 vout.n67 vout.t81 5.807
R207 vout.n67 vout.t67 5.807
R208 vout.n70 vout.t39 5.807
R209 vout.n70 vout.t50 5.807
R210 vout.n69 vout.t86 5.807
R211 vout.n69 vout.t98 5.807
R212 vout.n75 vout.t36 5.807
R213 vout.n75 vout.t47 5.807
R214 vout.n74 vout.t84 5.807
R215 vout.n74 vout.t94 5.807
R216 vout.n77 vout.t69 5.807
R217 vout.n77 vout.t53 5.807
R218 vout.n76 vout.t37 5.807
R219 vout.n76 vout.t104 5.807
R220 vout.n81 vout.t51 5.807
R221 vout.n136 vout.n31 2.241
R222 vout.n135 vout.n33 2.241
R223 vout.n133 vout.n38 2.241
R224 vout.n132 vout.n40 2.241
R225 vout.n131 vout.n42 2.241
R226 vout.n129 vout.n46 2.241
R227 vout.n128 vout.n48 2.241
R228 vout.n127 vout.n50 2.241
R229 vout.n126 vout.n52 2.241
R230 vout.n125 vout.n54 2.241
R231 vout.n124 vout.n56 2.241
R232 vout.n123 vout.n58 2.241
R233 vout.n122 vout.n60 2.241
R234 vout.n121 vout.n62 2.241
R235 vout.n119 vout.n66 2.241
R236 vout.n118 vout.n68 2.241
R237 vout.n117 vout.n70 2.241
R238 vout.n115 vout.n75 2.241
R239 vout.n114 vout.n77 2.241
R240 vout.n120 vout.n64 2.148
R241 vout.n130 vout.n44 2.148
R242 vout.n105 vout.n104 2.057
R243 vout.n11 vout.n10 2.057
R244 vout.n138 vout.n26 1.957
R245 vout.n112 vout.n81 1.957
R246 vout.n105 vout.n102 1.912
R247 vout.n106 vout.n99 1.912
R248 vout.n107 vout.n96 1.912
R249 vout.n108 vout.n93 1.912
R250 vout.n109 vout.n90 1.912
R251 vout.n110 vout.n87 1.912
R252 vout.n111 vout.n84 1.912
R253 vout.n113 vout.n80 1.912
R254 vout.n116 vout.n73 1.912
R255 vout.n134 vout.n36 1.912
R256 vout.n137 vout.n29 1.912
R257 vout.n139 vout.n25 1.912
R258 vout.n140 vout.n22 1.912
R259 vout.n141 vout.n19 1.912
R260 vout.n142 vout.n16 1.912
R261 vout.n13 vout.n2 1.912
R262 vout.n12 vout.n5 1.912
R263 vout.n11 vout.n8 1.912
R264 vout.n44 vout.n43 1.486
R265 vout.n64 vout.n63 1.459
R266 vout.n104 vout.n103 1.065
R267 vout.n10 vout.n9 1.065
R268 vout.n31 vout.n30 0.867
R269 vout.n38 vout.n37 0.867
R270 vout.n42 vout.n41 0.867
R271 vout.n48 vout.n47 0.867
R272 vout.n52 vout.n51 0.867
R273 vout.n56 vout.n55 0.867
R274 vout.n60 vout.n59 0.867
R275 vout.n66 vout.n65 0.867
R276 vout.n70 vout.n69 0.867
R277 vout.n77 vout.n76 0.867
R278 vout.n101 vout.n100 0.865
R279 vout.n102 vout.n101 0.865
R280 vout.n98 vout.n97 0.865
R281 vout.n99 vout.n98 0.865
R282 vout.n95 vout.n94 0.865
R283 vout.n96 vout.n95 0.865
R284 vout.n92 vout.n91 0.865
R285 vout.n93 vout.n92 0.865
R286 vout.n89 vout.n88 0.865
R287 vout.n90 vout.n89 0.865
R288 vout.n86 vout.n85 0.865
R289 vout.n87 vout.n86 0.865
R290 vout.n83 vout.n82 0.865
R291 vout.n84 vout.n83 0.865
R292 vout.n79 vout.n78 0.865
R293 vout.n80 vout.n79 0.865
R294 vout.n72 vout.n71 0.865
R295 vout.n73 vout.n72 0.865
R296 vout.n35 vout.n34 0.865
R297 vout.n36 vout.n35 0.865
R298 vout.n28 vout.n27 0.865
R299 vout.n29 vout.n28 0.865
R300 vout.n24 vout.n23 0.865
R301 vout.n25 vout.n24 0.865
R302 vout.n21 vout.n20 0.865
R303 vout.n22 vout.n21 0.865
R304 vout.n18 vout.n17 0.865
R305 vout.n19 vout.n18 0.865
R306 vout.n15 vout.n14 0.865
R307 vout.n16 vout.n15 0.865
R308 vout.n1 vout.n0 0.865
R309 vout.n2 vout.n1 0.865
R310 vout.n4 vout.n3 0.865
R311 vout.n5 vout.n4 0.865
R312 vout.n7 vout.n6 0.865
R313 vout.n8 vout.n7 0.865
R314 vout.n33 vout.n32 0.807
R315 vout.n40 vout.n39 0.807
R316 vout.n46 vout.n45 0.807
R317 vout.n50 vout.n49 0.807
R318 vout.n54 vout.n53 0.807
R319 vout.n58 vout.n57 0.807
R320 vout.n62 vout.n61 0.807
R321 vout.n68 vout.n67 0.807
R322 vout.n75 vout.n74 0.807
R323 vout vout.n143 0.359
R324 vout.n13 vout.n12 0.17
R325 vout.n142 vout.n141 0.17
R326 vout.n141 vout.n140 0.17
R327 vout.n140 vout.n139 0.17
R328 vout.n111 vout.n110 0.17
R329 vout.n110 vout.n109 0.17
R330 vout.n109 vout.n108 0.17
R331 vout.n108 vout.n107 0.17
R332 vout.n107 vout.n106 0.17
R333 vout.n106 vout.n105 0.17
R334 vout.n139 vout.n138 0.155
R335 vout.n112 vout.n111 0.155
R336 vout.n143 vout.n13 0.131