* NGSPICE file created from OTA_int_post.ext - technology: sky130A

.subckt OTA_int_post vdd vp vn vbias vss vout
X0 vdd.t143 vbias.t24 vout.t119 vdd sky130_fd_pr__pfet_01v8_lvt ad=0p pd=0u as=0p ps=0u w=4e+06u l=2e+06u
X1 vdd.t142 vbias.t25 vout.t118 vdd sky130_fd_pr__pfet_01v8_lvt ad=0p pd=0u as=0p ps=0u w=4e+06u l=2e+06u
X2 vout.t117 vbias.t26 vdd.t141 vdd sky130_fd_pr__pfet_01v8_lvt ad=0p pd=0u as=0p ps=0u w=4e+06u l=2e+06u
X3 vss.t79 a_2876_4988.t17 vout.t120 vss sky130_fd_pr__nfet_01v8_lvt ad=0p pd=0u as=0p ps=0u w=3e+06u l=350000u
X4 vdd.t140 vbias.t27 vout.t116 vdd sky130_fd_pr__pfet_01v8_lvt ad=0p pd=0u as=0p ps=0u w=4e+06u l=2e+06u
X5 vbias.t23 vbias.t22 vdd.t139 vdd sky130_fd_pr__pfet_01v8_lvt ad=0p pd=0u as=0p ps=0u w=4e+06u l=2e+06u
X6 vout.t115 vbias.t28 vdd.t138 vdd sky130_fd_pr__pfet_01v8_lvt ad=0p pd=0u as=0p ps=0u w=4e+06u l=2e+06u
X7 a_6320_n344.t28 vp.t0 a_2876_4988.t1 vdd sky130_fd_pr__pfet_01v8_lvt ad=0p pd=0u as=0p ps=0u w=4e+06u l=350000u
X8 vout.t114 vbias.t29 vdd.t137 vdd sky130_fd_pr__pfet_01v8_lvt ad=0p pd=0u as=0p ps=0u w=4e+06u l=2e+06u
X9 vout.t121 a_2876_4988.t18 vss.t78 vss sky130_fd_pr__nfet_01v8_lvt ad=0p pd=0u as=0p ps=0u w=3e+06u l=350000u
X10 a_2876_4988.t2 a_6694_n4810.t20 vss.t80 vss sky130_fd_pr__nfet_01v8_lvt ad=0p pd=0u as=0p ps=0u w=3e+06u l=350000u
X11 vout.t122 a_2876_4988.t19 vss.t77 vss sky130_fd_pr__nfet_01v8_lvt ad=0p pd=0u as=0p ps=0u w=3e+06u l=350000u
X12 vdd.t136 vbias.t30 vout.t113 vdd sky130_fd_pr__pfet_01v8_lvt ad=0p pd=0u as=0p ps=0u w=4e+06u l=2e+06u
X13 vss.t76 a_2876_4988.t20 vout.t123 vss sky130_fd_pr__nfet_01v8_lvt ad=0p pd=0u as=0p ps=0u w=3e+06u l=350000u
X14 vout.t124 a_2876_4988.t21 vss.t75 vss sky130_fd_pr__nfet_01v8_lvt ad=0p pd=0u as=0p ps=0u w=3e+06u l=350000u
X15 a_6694_n4810.t15 a_6694_n4810.t14 vss.t87 vss sky130_fd_pr__nfet_01v8_lvt ad=0p pd=0u as=0p ps=0u w=3e+06u l=350000u
X16 vss.t74 a_2876_4988.t22 vout.t125 vss sky130_fd_pr__nfet_01v8_lvt ad=0p pd=0u as=0p ps=0u w=3e+06u l=350000u
X17 vout.t112 vbias.t31 vdd.t135 vdd sky130_fd_pr__pfet_01v8_lvt ad=0p pd=0u as=0p ps=0u w=4e+06u l=2e+06u
X18 vss.t73 a_2876_4988.t23 vout.t126 vss sky130_fd_pr__nfet_01v8_lvt ad=0p pd=0u as=0p ps=0u w=3e+06u l=350000u
X19 vout.t127 a_2876_4988.t24 vss.t72 vss sky130_fd_pr__nfet_01v8_lvt ad=0p pd=0u as=0p ps=0u w=3e+06u l=350000u
X20 vdd.t134 vbias.t20 vbias.t21 vdd sky130_fd_pr__pfet_01v8_lvt ad=0p pd=0u as=0p ps=0u w=4e+06u l=2e+06u
X21 vout.t111 vbias.t32 vdd.t133 vdd sky130_fd_pr__pfet_01v8_lvt ad=0p pd=0u as=0p ps=0u w=4e+06u l=2e+06u
X22 vdd.t132 vbias.t33 vout.t110 vdd sky130_fd_pr__pfet_01v8_lvt ad=0p pd=0u as=0p ps=0u w=4e+06u l=2e+06u
X23 vdd.t131 vbias.t34 vout.t109 vdd sky130_fd_pr__pfet_01v8_lvt ad=0p pd=0u as=0p ps=0u w=4e+06u l=2e+06u
X24 vdd.t130 vbias.t35 vout.t108 vdd sky130_fd_pr__pfet_01v8_lvt ad=0p pd=0u as=0p ps=0u w=4e+06u l=2e+06u
X25 vout.t107 vbias.t36 vdd.t129 vdd sky130_fd_pr__pfet_01v8_lvt ad=0p pd=0u as=0p ps=0u w=4e+06u l=2e+06u
X26 vout.t106 vbias.t37 vdd.t128 vdd sky130_fd_pr__pfet_01v8_lvt ad=0p pd=0u as=0p ps=0u w=4e+06u l=2e+06u
X27 vdd.t127 vbias.t38 vout.t105 vdd sky130_fd_pr__pfet_01v8_lvt ad=0p pd=0u as=0p ps=0u w=4e+06u l=2e+06u
X28 vdd.t126 vbias.t39 vout.t104 vdd sky130_fd_pr__pfet_01v8_lvt ad=0p pd=0u as=0p ps=0u w=4e+06u l=2e+06u
X29 vdd.t125 vbias.t40 vout.t103 vdd sky130_fd_pr__pfet_01v8_lvt ad=0p pd=0u as=0p ps=0u w=4e+06u l=2e+06u
X30 vdd.t124 vbias.t41 vout.t102 vdd sky130_fd_pr__pfet_01v8_lvt ad=0p pd=0u as=0p ps=0u w=4e+06u l=2e+06u
X31 vdd.t123 vbias.t42 vout.t101 vdd sky130_fd_pr__pfet_01v8_lvt ad=0p pd=0u as=0p ps=0u w=4e+06u l=2e+06u
X32 vout.t100 vbias.t43 vdd.t122 vdd sky130_fd_pr__pfet_01v8_lvt ad=0p pd=0u as=0p ps=0u w=4e+06u l=2e+06u
X33 vdd.t121 vbias.t18 vbias.t19 vdd sky130_fd_pr__pfet_01v8_lvt ad=0p pd=0u as=0p ps=0u w=4e+06u l=2e+06u
X34 vdd.t120 vbias.t44 a_6320_n344.t16 vdd sky130_fd_pr__pfet_01v8_lvt ad=0p pd=0u as=0p ps=0u w=4e+06u l=2e+06u
X35 vout.t99 vbias.t45 vdd.t119 vdd sky130_fd_pr__pfet_01v8_lvt ad=0p pd=0u as=0p ps=0u w=4e+06u l=2e+06u
X36 vss.t71 a_2876_4988.t25 vout.t128 vss sky130_fd_pr__nfet_01v8_lvt ad=0p pd=0u as=0p ps=0u w=3e+06u l=350000u
X37 vout.t129 a_2876_4988.t26 vss.t70 vss sky130_fd_pr__nfet_01v8_lvt ad=0p pd=0u as=0p ps=0u w=3e+06u l=350000u
X38 vout.t98 vbias.t46 vdd.t118 vdd sky130_fd_pr__pfet_01v8_lvt ad=0p pd=0u as=0p ps=0u w=4e+06u l=2e+06u
X39 vdd.t117 vbias.t16 vbias.t17 vdd sky130_fd_pr__pfet_01v8_lvt ad=0p pd=0u as=0p ps=0u w=4e+06u l=2e+06u
X40 vout.t97 vbias.t47 vdd.t116 vdd sky130_fd_pr__pfet_01v8_lvt ad=0p pd=0u as=0p ps=0u w=4e+06u l=2e+06u
X41 a_6320_n344.t33 vn.t0 a_6694_n4810.t17 vdd sky130_fd_pr__pfet_01v8_lvt ad=0p pd=0u as=0p ps=0u w=4e+06u l=350000u
X42 a_2876_4988.t6 vp.t1 a_6320_n344.t27 vdd sky130_fd_pr__pfet_01v8_lvt ad=0p pd=0u as=0p ps=0u w=4e+06u l=350000u
X43 a_6320_n344.t26 vp.t2 a_2876_4988.t7 vdd sky130_fd_pr__pfet_01v8_lvt ad=0p pd=0u as=0p ps=0u w=4e+06u l=350000u
X44 vbias.t15 vbias.t14 vdd.t115 vdd sky130_fd_pr__pfet_01v8_lvt ad=0p pd=0u as=0p ps=0u w=4e+06u l=2e+06u
X45 vdd.t114 vbias.t48 vout.t96 vdd sky130_fd_pr__pfet_01v8_lvt ad=0p pd=0u as=0p ps=0u w=4e+06u l=2e+06u
X46 vss.t69 a_2876_4988.t27 vout.t130 vss sky130_fd_pr__nfet_01v8_lvt ad=0p pd=0u as=0p ps=0u w=3e+06u l=350000u
X47 vout.t131 a_2876_4988.t28 vss.t68 vss sky130_fd_pr__nfet_01v8_lvt ad=0p pd=0u as=0p ps=0u w=3e+06u l=350000u
X48 vss.t67 a_2876_4988.t29 vout.t132 vss sky130_fd_pr__nfet_01v8_lvt ad=0p pd=0u as=0p ps=0u w=3e+06u l=350000u
X49 vout.t133 a_2876_4988.t30 vss.t66 vss sky130_fd_pr__nfet_01v8_lvt ad=0p pd=0u as=0p ps=0u w=3e+06u l=350000u
X50 vdd.t113 vbias.t49 vout.t95 vdd sky130_fd_pr__pfet_01v8_lvt ad=0p pd=0u as=0p ps=0u w=4e+06u l=2e+06u
X51 vdd.t112 vbias.t50 vout.t94 vdd sky130_fd_pr__pfet_01v8_lvt ad=0p pd=0u as=0p ps=0u w=4e+06u l=2e+06u
X52 a_6694_n4810.t3 vn.t1 a_6320_n344.t3 vdd sky130_fd_pr__pfet_01v8_lvt ad=0p pd=0u as=0p ps=0u w=4e+06u l=350000u
X53 vout.t93 vbias.t51 vdd.t111 vdd sky130_fd_pr__pfet_01v8_lvt ad=0p pd=0u as=0p ps=0u w=4e+06u l=2e+06u
X54 vout.t134 a_2876_4988.t31 vss.t65 vss sky130_fd_pr__nfet_01v8_lvt ad=0p pd=0u as=0p ps=0u w=3e+06u l=350000u
X55 vdd.t110 vbias.t52 a_6320_n344.t15 vdd sky130_fd_pr__pfet_01v8_lvt ad=0p pd=0u as=0p ps=0u w=4e+06u l=2e+06u
X56 vdd.t109 vbias.t53 vout.t92 vdd sky130_fd_pr__pfet_01v8_lvt ad=0p pd=0u as=0p ps=0u w=4e+06u l=2e+06u
X57 a_6320_n344.t14 vbias.t54 vdd.t108 vdd sky130_fd_pr__pfet_01v8_lvt ad=0p pd=0u as=0p ps=0u w=4e+06u l=2e+06u
X58 vout.t135 a_2876_4988.t32 vss.t64 vss sky130_fd_pr__nfet_01v8_lvt ad=0p pd=0u as=0p ps=0u w=3e+06u l=350000u
X59 vdd.t107 vbias.t55 vout.t91 vdd sky130_fd_pr__pfet_01v8_lvt ad=0p pd=0u as=0p ps=0u w=4e+06u l=2e+06u
X60 vdd.t106 vbias.t56 a_6320_n344.t13 vdd sky130_fd_pr__pfet_01v8_lvt ad=0p pd=0u as=0p ps=0u w=4e+06u l=2e+06u
X61 vout.t136 a_2876_4988.t33 vss.t63 vss sky130_fd_pr__nfet_01v8_lvt ad=0p pd=0u as=0p ps=0u w=3e+06u l=350000u
X62 vout.t90 vbias.t57 vdd.t105 vdd sky130_fd_pr__pfet_01v8_lvt ad=0p pd=0u as=0p ps=0u w=4e+06u l=2e+06u
X63 vss.t62 a_2876_4988.t34 vout.t137 vss sky130_fd_pr__nfet_01v8_lvt ad=0p pd=0u as=0p ps=0u w=3e+06u l=350000u
X64 vout.t89 vbias.t58 vdd.t104 vdd sky130_fd_pr__pfet_01v8_lvt ad=0p pd=0u as=0p ps=0u w=4e+06u l=2e+06u
X65 a_6320_n344.t25 vp.t3 a_2876_4988.t8 vdd sky130_fd_pr__pfet_01v8_lvt ad=0p pd=0u as=0p ps=0u w=4e+06u l=350000u
X66 a_6320_n344.t12 vbias.t59 vdd.t103 vdd sky130_fd_pr__pfet_01v8_lvt ad=0p pd=0u as=0p ps=0u w=4e+06u l=2e+06u
X67 vout.t88 vbias.t60 vdd.t102 vdd sky130_fd_pr__pfet_01v8_lvt ad=0p pd=0u as=0p ps=0u w=4e+06u l=2e+06u
X68 vdd.t101 vbias.t61 vout.t87 vdd sky130_fd_pr__pfet_01v8_lvt ad=0p pd=0u as=0p ps=0u w=4e+06u l=2e+06u
X69 a_6694_n4810.t2 vn.t2 a_6320_n344.t2 vdd sky130_fd_pr__pfet_01v8_lvt ad=0p pd=0u as=0p ps=0u w=4e+06u l=350000u
X70 vss.t61 a_2876_4988.t35 vout.t138 vss sky130_fd_pr__nfet_01v8_lvt ad=0p pd=0u as=0p ps=0u w=3e+06u l=350000u
X71 vdd.t100 vbias.t62 vout.t86 vdd sky130_fd_pr__pfet_01v8_lvt ad=0p pd=0u as=0p ps=0u w=4e+06u l=2e+06u
X72 a_6320_n344.t1 vn.t3 a_6694_n4810.t1 vdd sky130_fd_pr__pfet_01v8_lvt ad=0p pd=0u as=0p ps=0u w=4e+06u l=350000u
X73 vdd.t99 vbias.t63 vout.t85 vdd sky130_fd_pr__pfet_01v8_lvt ad=0p pd=0u as=0p ps=0u w=4e+06u l=2e+06u
X74 vout.t84 vbias.t64 vdd.t98 vdd sky130_fd_pr__pfet_01v8_lvt ad=0p pd=0u as=0p ps=0u w=4e+06u l=2e+06u
X75 vout.t83 vbias.t65 vdd.t97 vdd sky130_fd_pr__pfet_01v8_lvt ad=0p pd=0u as=0p ps=0u w=4e+06u l=2e+06u
X76 vdd.t96 vbias.t66 vout.t82 vdd sky130_fd_pr__pfet_01v8_lvt ad=0p pd=0u as=0p ps=0u w=4e+06u l=2e+06u
X77 vss.t60 a_2876_4988.t36 vout.t139 vss sky130_fd_pr__nfet_01v8_lvt ad=0p pd=0u as=0p ps=0u w=3e+06u l=350000u
X78 vout.t81 vbias.t67 vdd.t95 vdd sky130_fd_pr__pfet_01v8_lvt ad=0p pd=0u as=0p ps=0u w=4e+06u l=2e+06u
X79 a_2876_4988.t9 vp.t4 a_6320_n344.t24 vdd sky130_fd_pr__pfet_01v8_lvt ad=0p pd=0u as=0p ps=0u w=4e+06u l=350000u
X80 vdd.t94 vbias.t68 vout.t80 vdd sky130_fd_pr__pfet_01v8_lvt ad=0p pd=0u as=0p ps=0u w=4e+06u l=2e+06u
X81 vout.t140 a_2876_4988.t37 vss.t59 vss sky130_fd_pr__nfet_01v8_lvt ad=0p pd=0u as=0p ps=0u w=3e+06u l=350000u
X82 vdd.t93 vbias.t69 vout.t79 vdd sky130_fd_pr__pfet_01v8_lvt ad=0p pd=0u as=0p ps=0u w=4e+06u l=2e+06u
X83 vout.t78 vbias.t70 vdd.t92 vdd sky130_fd_pr__pfet_01v8_lvt ad=0p pd=0u as=0p ps=0u w=4e+06u l=2e+06u
X84 vout.t77 vbias.t71 vdd.t91 vdd sky130_fd_pr__pfet_01v8_lvt ad=0p pd=0u as=0p ps=0u w=4e+06u l=2e+06u
X85 vss.t58 a_2876_4988.t38 vout.t141 vss sky130_fd_pr__nfet_01v8_lvt ad=0p pd=0u as=0p ps=0u w=3e+06u l=350000u
X86 vout.t142 a_2876_4988.t39 vss.t57 vss sky130_fd_pr__nfet_01v8_lvt ad=0p pd=0u as=0p ps=0u w=3e+06u l=350000u
X87 vout.t143 a_2876_4988.t40 vss.t56 vss sky130_fd_pr__nfet_01v8_lvt ad=0p pd=0u as=0p ps=0u w=3e+06u l=350000u
X88 vdd.t90 vbias.t72 vout.t76 vdd sky130_fd_pr__pfet_01v8_lvt ad=0p pd=0u as=0p ps=0u w=4e+06u l=2e+06u
X89 vss.t55 a_2876_4988.t41 vout.t144 vss sky130_fd_pr__nfet_01v8_lvt ad=0p pd=0u as=0p ps=0u w=3e+06u l=350000u
X90 vout.t75 vbias.t73 vdd.t89 vdd sky130_fd_pr__pfet_01v8_lvt ad=0p pd=0u as=0p ps=0u w=4e+06u l=2e+06u
X91 vout.t74 vbias.t74 vdd.t88 vdd sky130_fd_pr__pfet_01v8_lvt ad=0p pd=0u as=0p ps=0u w=4e+06u l=2e+06u
X92 vss.t54 a_2876_4988.t42 vout.t145 vss sky130_fd_pr__nfet_01v8_lvt ad=0p pd=0u as=0p ps=0u w=3e+06u l=350000u
X93 vout.t73 vbias.t75 vdd.t87 vdd sky130_fd_pr__pfet_01v8_lvt ad=0p pd=0u as=0p ps=0u w=4e+06u l=2e+06u
X94 a_6320_n344.t30 vn.t4 a_6694_n4810.t6 vdd sky130_fd_pr__pfet_01v8_lvt ad=0p pd=0u as=0p ps=0u w=4e+06u l=350000u
X95 vss.t53 a_2876_4988.t43 vout.t146 vss sky130_fd_pr__nfet_01v8_lvt ad=0p pd=0u as=0p ps=0u w=3e+06u l=350000u
X96 vout.t147 a_2876_4988.t44 vss.t52 vss sky130_fd_pr__nfet_01v8_lvt ad=0p pd=0u as=0p ps=0u w=3e+06u l=350000u
X97 a_6694_n4810.t5 vn.t5 a_6320_n344.t29 vdd sky130_fd_pr__pfet_01v8_lvt ad=0p pd=0u as=0p ps=0u w=4e+06u l=350000u
X98 a_2876_4988.t10 vp.t5 a_6320_n344.t23 vdd sky130_fd_pr__pfet_01v8_lvt ad=0p pd=0u as=0p ps=0u w=4e+06u l=350000u
X99 vout.t148 a_2876_4988.t45 vss.t51 vss sky130_fd_pr__nfet_01v8_lvt ad=0p pd=0u as=0p ps=0u w=3e+06u l=350000u
X100 vout.t72 vbias.t76 vdd.t86 vdd sky130_fd_pr__pfet_01v8_lvt ad=0p pd=0u as=0p ps=0u w=4e+06u l=2e+06u
X101 vout.t149 a_2876_4988.t46 vss.t50 vss sky130_fd_pr__nfet_01v8_lvt ad=0p pd=0u as=0p ps=0u w=3e+06u l=350000u
X102 vdd.t85 vbias.t77 vout.t71 vdd sky130_fd_pr__pfet_01v8_lvt ad=0p pd=0u as=0p ps=0u w=4e+06u l=2e+06u
X103 vout.t150 a_2876_4988.t47 vss.t49 vss sky130_fd_pr__nfet_01v8_lvt ad=0p pd=0u as=0p ps=0u w=3e+06u l=350000u
X104 vout.t151 a_2876_4988.t48 vss.t48 vss sky130_fd_pr__nfet_01v8_lvt ad=0p pd=0u as=0p ps=0u w=3e+06u l=350000u
X105 vss.t47 a_2876_4988.t49 vout.t152 vss sky130_fd_pr__nfet_01v8_lvt ad=0p pd=0u as=0p ps=0u w=3e+06u l=350000u
X106 vss.t46 a_2876_4988.t50 vout.t153 vss sky130_fd_pr__nfet_01v8_lvt ad=0p pd=0u as=0p ps=0u w=3e+06u l=350000u
X107 vout.t70 vbias.t78 vdd.t84 vdd sky130_fd_pr__pfet_01v8_lvt ad=0p pd=0u as=0p ps=0u w=4e+06u l=2e+06u
X108 a_6320_n344.t11 vbias.t79 vdd.t83 vdd sky130_fd_pr__pfet_01v8_lvt ad=0p pd=0u as=0p ps=0u w=4e+06u l=2e+06u
X109 vdd.t82 vbias.t80 vout.t69 vdd sky130_fd_pr__pfet_01v8_lvt ad=0p pd=0u as=0p ps=0u w=4e+06u l=2e+06u
X110 vout.t68 vbias.t81 vdd.t81 vdd sky130_fd_pr__pfet_01v8_lvt ad=0p pd=0u as=0p ps=0u w=4e+06u l=2e+06u
X111 vdd.t80 vbias.t12 vbias.t13 vdd sky130_fd_pr__pfet_01v8_lvt ad=0p pd=0u as=0p ps=0u w=4e+06u l=2e+06u
X113 vss.t45 a_2876_4988.t51 vout.t154 vss sky130_fd_pr__nfet_01v8_lvt ad=0p pd=0u as=0p ps=0u w=3e+06u l=350000u
X114 vdd.t79 vbias.t82 vout.t67 vdd sky130_fd_pr__pfet_01v8_lvt ad=0p pd=0u as=0p ps=0u w=4e+06u l=2e+06u
X115 vss.t44 a_2876_4988.t52 vout.t155 vss sky130_fd_pr__nfet_01v8_lvt ad=0p pd=0u as=0p ps=0u w=3e+06u l=350000u
X116 vss.t43 a_2876_4988.t53 vout.t156 vss sky130_fd_pr__nfet_01v8_lvt ad=0p pd=0u as=0p ps=0u w=3e+06u l=350000u
X117 vdd.t78 vbias.t83 vout.t66 vdd sky130_fd_pr__pfet_01v8_lvt ad=0p pd=0u as=0p ps=0u w=4e+06u l=2e+06u
X118 vout.t157 a_2876_4988.t54 vss.t42 vss sky130_fd_pr__nfet_01v8_lvt ad=0p pd=0u as=0p ps=0u w=3e+06u l=350000u
X119 a_2876_4988.t0 a_13743_n3929# vss sky130_fd_pr__res_xhigh_po w=350000u l=2.8e+06u
X120 vss.t41 a_2876_4988.t55 vout.t158 vss sky130_fd_pr__nfet_01v8_lvt ad=0p pd=0u as=0p ps=0u w=3e+06u l=350000u
X121 vdd.t77 vbias.t84 vout.t65 vdd sky130_fd_pr__pfet_01v8_lvt ad=0p pd=0u as=0p ps=0u w=4e+06u l=2e+06u
X122 vout.t159 a_2876_4988.t56 vss.t40 vss sky130_fd_pr__nfet_01v8_lvt ad=0p pd=0u as=0p ps=0u w=3e+06u l=350000u
X123 vout.t160 a_2876_4988.t57 vss.t39 vss sky130_fd_pr__nfet_01v8_lvt ad=0p pd=0u as=0p ps=0u w=3e+06u l=350000u
X124 vss.t38 a_2876_4988.t58 vout.t161 vss sky130_fd_pr__nfet_01v8_lvt ad=0p pd=0u as=0p ps=0u w=3e+06u l=350000u
X125 vout.t64 vbias.t85 vdd.t76 vdd sky130_fd_pr__pfet_01v8_lvt ad=0p pd=0u as=0p ps=0u w=4e+06u l=2e+06u
X126 vdd.t75 vbias.t86 vout.t63 vdd sky130_fd_pr__pfet_01v8_lvt ad=0p pd=0u as=0p ps=0u w=4e+06u l=2e+06u
X127 vdd.t74 vbias.t87 vout.t62 vdd sky130_fd_pr__pfet_01v8_lvt ad=0p pd=0u as=0p ps=0u w=4e+06u l=2e+06u
X128 vss.t37 a_2876_4988.t59 vout.t162 vss sky130_fd_pr__nfet_01v8_lvt ad=0p pd=0u as=0p ps=0u w=3e+06u l=350000u
X129 vout.t163 a_2876_4988.t60 vss.t36 vss sky130_fd_pr__nfet_01v8_lvt ad=0p pd=0u as=0p ps=0u w=3e+06u l=350000u
X130 vdd.t73 vbias.t88 vout.t61 vdd sky130_fd_pr__pfet_01v8_lvt ad=0p pd=0u as=0p ps=0u w=4e+06u l=2e+06u
X131 vout.t60 vbias.t89 vdd.t72 vdd sky130_fd_pr__pfet_01v8_lvt ad=0p pd=0u as=0p ps=0u w=4e+06u l=2e+06u
X132 a_6320_n344.t0 vn.t6 a_6694_n4810.t0 vdd sky130_fd_pr__pfet_01v8_lvt ad=0p pd=0u as=0p ps=0u w=4e+06u l=350000u
X133 vout.t59 vbias.t90 vdd.t71 vdd sky130_fd_pr__pfet_01v8_lvt ad=0p pd=0u as=0p ps=0u w=4e+06u l=2e+06u
X134 vdd.t70 vbias.t91 vout.t58 vdd sky130_fd_pr__pfet_01v8_lvt ad=0p pd=0u as=0p ps=0u w=4e+06u l=2e+06u
X135 a_2876_4988.t11 vp.t6 a_6320_n344.t22 vdd sky130_fd_pr__pfet_01v8_lvt ad=0p pd=0u as=0p ps=0u w=4e+06u l=350000u
X136 vout.t57 vbias.t92 vdd.t69 vdd sky130_fd_pr__pfet_01v8_lvt ad=0p pd=0u as=0p ps=0u w=4e+06u l=2e+06u
X137 vdd.t68 vbias.t93 vout.t56 vdd sky130_fd_pr__pfet_01v8_lvt ad=0p pd=0u as=0p ps=0u w=4e+06u l=2e+06u
X138 vdd.t67 vbias.t10 vbias.t11 vdd sky130_fd_pr__pfet_01v8_lvt ad=0p pd=0u as=0p ps=0u w=4e+06u l=2e+06u
X139 vdd.t66 vbias.t94 vout.t55 vdd sky130_fd_pr__pfet_01v8_lvt ad=0p pd=0u as=0p ps=0u w=4e+06u l=2e+06u
X140 vss.t35 a_2876_4988.t61 vout.t164 vss sky130_fd_pr__nfet_01v8_lvt ad=0p pd=0u as=0p ps=0u w=3e+06u l=350000u
X141 vout.t165 a_2876_4988.t62 vss.t34 vss sky130_fd_pr__nfet_01v8_lvt ad=0p pd=0u as=0p ps=0u w=3e+06u l=350000u
X142 vdd.t65 vbias.t95 vout.t54 vdd sky130_fd_pr__pfet_01v8_lvt ad=0p pd=0u as=0p ps=0u w=4e+06u l=2e+06u
X143 vout.t53 vbias.t96 vdd.t64 vdd sky130_fd_pr__pfet_01v8_lvt ad=0p pd=0u as=0p ps=0u w=4e+06u l=2e+06u
X144 vss.t86 a_6694_n4810.t12 a_6694_n4810.t13 vss sky130_fd_pr__nfet_01v8_lvt ad=0p pd=0u as=0p ps=0u w=3e+06u l=350000u
X145 vdd.t63 vbias.t97 vout.t52 vdd sky130_fd_pr__pfet_01v8_lvt ad=0p pd=0u as=0p ps=0u w=4e+06u l=2e+06u
X146 vout.t51 vbias.t98 vdd.t62 vdd sky130_fd_pr__pfet_01v8_lvt ad=0p pd=0u as=0p ps=0u w=4e+06u l=2e+06u
X147 vout.t50 vbias.t99 vdd.t61 vdd sky130_fd_pr__pfet_01v8_lvt ad=0p pd=0u as=0p ps=0u w=4e+06u l=2e+06u
X148 vdd.t60 vbias.t100 vout.t49 vdd sky130_fd_pr__pfet_01v8_lvt ad=0p pd=0u as=0p ps=0u w=4e+06u l=2e+06u
X149 vdd.t59 vbias.t101 vout.t48 vdd sky130_fd_pr__pfet_01v8_lvt ad=0p pd=0u as=0p ps=0u w=4e+06u l=2e+06u
X150 vdd.t58 vbias.t102 a_6320_n344.t10 vdd sky130_fd_pr__pfet_01v8_lvt ad=0p pd=0u as=0p ps=0u w=4e+06u l=2e+06u
X151 vdd.t57 vbias.t103 vout.t47 vdd sky130_fd_pr__pfet_01v8_lvt ad=0p pd=0u as=0p ps=0u w=4e+06u l=2e+06u
X152 vout.t166 a_2876_4988.t63 vss.t33 vss sky130_fd_pr__nfet_01v8_lvt ad=0p pd=0u as=0p ps=0u w=3e+06u l=350000u
X153 vout.t46 vbias.t104 vdd.t56 vdd sky130_fd_pr__pfet_01v8_lvt ad=0p pd=0u as=0p ps=0u w=4e+06u l=2e+06u
X154 vout.t45 vbias.t105 vdd.t55 vdd sky130_fd_pr__pfet_01v8_lvt ad=0p pd=0u as=0p ps=0u w=4e+06u l=2e+06u
X155 vss.t81 a_6694_n4810.t21 a_2876_4988.t3 vss sky130_fd_pr__nfet_01v8_lvt ad=0p pd=0u as=0p ps=0u w=3e+06u l=350000u
X156 a_6320_n344.t4 vn.t7 a_6694_n4810.t4 vdd sky130_fd_pr__pfet_01v8_lvt ad=0p pd=0u as=0p ps=0u w=4e+06u l=350000u
X157 vdd.t54 vbias.t106 vout.t44 vdd sky130_fd_pr__pfet_01v8_lvt ad=0p pd=0u as=0p ps=0u w=4e+06u l=2e+06u
X158 a_2876_4988.t12 vp.t7 a_6320_n344.t21 vdd sky130_fd_pr__pfet_01v8_lvt ad=0p pd=0u as=0p ps=0u w=4e+06u l=350000u
X159 vout.t43 vbias.t107 vdd.t53 vdd sky130_fd_pr__pfet_01v8_lvt ad=0p pd=0u as=0p ps=0u w=4e+06u l=2e+06u
X160 vss.t32 a_2876_4988.t64 vout.t167 vss sky130_fd_pr__nfet_01v8_lvt ad=0p pd=0u as=0p ps=0u w=3e+06u l=350000u
X161 vout.t168 a_2876_4988.t65 vss.t31 vss sky130_fd_pr__nfet_01v8_lvt ad=0p pd=0u as=0p ps=0u w=3e+06u l=350000u
X162 a_6320_n344.t20 vp.t8 a_2876_4988.t13 vdd sky130_fd_pr__pfet_01v8_lvt ad=0p pd=0u as=0p ps=0u w=4e+06u l=350000u
X163 vss.t30 a_2876_4988.t66 vout.t169 vss sky130_fd_pr__nfet_01v8_lvt ad=0p pd=0u as=0p ps=0u w=3e+06u l=350000u
X164 vdd.t52 vbias.t108 vout.t42 vdd sky130_fd_pr__pfet_01v8_lvt ad=0p pd=0u as=0p ps=0u w=4e+06u l=2e+06u
X165 vout.t41 vbias.t109 vdd.t51 vdd sky130_fd_pr__pfet_01v8_lvt ad=0p pd=0u as=0p ps=0u w=4e+06u l=2e+06u
X166 vout.t40 vbias.t110 vdd.t50 vdd sky130_fd_pr__pfet_01v8_lvt ad=0p pd=0u as=0p ps=0u w=4e+06u l=2e+06u
X167 vdd.t49 vbias.t111 vout.t39 vdd sky130_fd_pr__pfet_01v8_lvt ad=0p pd=0u as=0p ps=0u w=4e+06u l=2e+06u
X168 vss.t29 a_2876_4988.t67 vout.t170 vss sky130_fd_pr__nfet_01v8_lvt ad=0p pd=0u as=0p ps=0u w=3e+06u l=350000u
X169 vbias.t9 vbias.t8 vdd.t48 vdd sky130_fd_pr__pfet_01v8_lvt ad=0p pd=0u as=0p ps=0u w=4e+06u l=2e+06u
X170 vout.t38 vbias.t112 vdd.t47 vdd sky130_fd_pr__pfet_01v8_lvt ad=0p pd=0u as=0p ps=0u w=4e+06u l=2e+06u
X171 vout.t171 a_2876_4988.t68 vss.t28 vss sky130_fd_pr__nfet_01v8_lvt ad=0p pd=0u as=0p ps=0u w=3e+06u l=350000u
X172 vout.t37 vbias.t113 vdd.t46 vdd sky130_fd_pr__pfet_01v8_lvt ad=0p pd=0u as=0p ps=0u w=4e+06u l=2e+06u
X173 vout.t172 a_2876_4988.t69 vss.t27 vss sky130_fd_pr__nfet_01v8_lvt ad=0p pd=0u as=0p ps=0u w=3e+06u l=350000u
X174 vdd.t45 vbias.t114 vout.t36 vdd sky130_fd_pr__pfet_01v8_lvt ad=0p pd=0u as=0p ps=0u w=4e+06u l=2e+06u
X175 vdd.t44 vbias.t115 vout.t35 vdd sky130_fd_pr__pfet_01v8_lvt ad=0p pd=0u as=0p ps=0u w=4e+06u l=2e+06u
X176 vout.t34 vbias.t116 vdd.t43 vdd sky130_fd_pr__pfet_01v8_lvt ad=0p pd=0u as=0p ps=0u w=4e+06u l=2e+06u
X177 vdd.t42 vbias.t117 vout.t33 vdd sky130_fd_pr__pfet_01v8_lvt ad=0p pd=0u as=0p ps=0u w=4e+06u l=2e+06u
X178 vout.t32 vbias.t118 vdd.t41 vdd sky130_fd_pr__pfet_01v8_lvt ad=0p pd=0u as=0p ps=0u w=4e+06u l=2e+06u
X179 vout.t31 vbias.t119 vdd.t40 vdd sky130_fd_pr__pfet_01v8_lvt ad=0p pd=0u as=0p ps=0u w=4e+06u l=2e+06u
X180 a_6320_n344.t9 vbias.t120 vdd.t39 vdd sky130_fd_pr__pfet_01v8_lvt ad=0p pd=0u as=0p ps=0u w=4e+06u l=2e+06u
X181 vbias.t7 vbias.t6 vdd.t38 vdd sky130_fd_pr__pfet_01v8_lvt ad=0p pd=0u as=0p ps=0u w=4e+06u l=2e+06u
X182 vout.t30 vbias.t121 vdd.t37 vdd sky130_fd_pr__pfet_01v8_lvt ad=0p pd=0u as=0p ps=0u w=4e+06u l=2e+06u
X183 vdd.t36 vbias.t122 vout.t29 vdd sky130_fd_pr__pfet_01v8_lvt ad=0p pd=0u as=0p ps=0u w=4e+06u l=2e+06u
X184 a_6694_n4810.t16 vn.t8 a_6320_n344.t32 vdd sky130_fd_pr__pfet_01v8_lvt ad=0p pd=0u as=0p ps=0u w=4e+06u l=350000u
X185 vout.t28 vbias.t123 vdd.t35 vdd sky130_fd_pr__pfet_01v8_lvt ad=0p pd=0u as=0p ps=0u w=4e+06u l=2e+06u
X186 vout.t27 vbias.t124 vdd.t34 vdd sky130_fd_pr__pfet_01v8_lvt ad=0p pd=0u as=0p ps=0u w=4e+06u l=2e+06u
X187 vout.t173 a_2876_4988.t70 vss.t26 vss sky130_fd_pr__nfet_01v8_lvt ad=0p pd=0u as=0p ps=0u w=3e+06u l=350000u
X188 vss.t25 a_2876_4988.t71 vout.t174 vss sky130_fd_pr__nfet_01v8_lvt ad=0p pd=0u as=0p ps=0u w=3e+06u l=350000u
X189 a_2876_4988.t4 a_6694_n4810.t22 vss.t82 vss sky130_fd_pr__nfet_01v8_lvt ad=0p pd=0u as=0p ps=0u w=3e+06u l=350000u
X190 vdd.t33 vbias.t125 vout.t26 vdd sky130_fd_pr__pfet_01v8_lvt ad=0p pd=0u as=0p ps=0u w=4e+06u l=2e+06u
X191 vbias.t5 vbias.t4 vdd.t32 vdd sky130_fd_pr__pfet_01v8_lvt ad=0p pd=0u as=0p ps=0u w=4e+06u l=2e+06u
X192 vdd.t31 vbias.t126 vout.t25 vdd sky130_fd_pr__pfet_01v8_lvt ad=0p pd=0u as=0p ps=0u w=4e+06u l=2e+06u
X193 vout.t24 vbias.t127 vdd.t30 vdd sky130_fd_pr__pfet_01v8_lvt ad=0p pd=0u as=0p ps=0u w=4e+06u l=2e+06u
X194 vdd.t29 vbias.t128 vout.t23 vdd sky130_fd_pr__pfet_01v8_lvt ad=0p pd=0u as=0p ps=0u w=4e+06u l=2e+06u
X195 vout.t22 vbias.t129 vdd.t28 vdd sky130_fd_pr__pfet_01v8_lvt ad=0p pd=0u as=0p ps=0u w=4e+06u l=2e+06u
X196 vdd.t27 vbias.t130 vout.t21 vdd sky130_fd_pr__pfet_01v8_lvt ad=0p pd=0u as=0p ps=0u w=4e+06u l=2e+06u
X197 a_6694_n4810.t11 a_6694_n4810.t10 vss.t85 vss sky130_fd_pr__nfet_01v8_lvt ad=0p pd=0u as=0p ps=0u w=3e+06u l=350000u
X198 vout.t175 a_2876_4988.t72 vss.t24 vss sky130_fd_pr__nfet_01v8_lvt ad=0p pd=0u as=0p ps=0u w=3e+06u l=350000u
X199 vout.t176 a_2876_4988.t73 vss.t23 vss sky130_fd_pr__nfet_01v8_lvt ad=0p pd=0u as=0p ps=0u w=3e+06u l=350000u
X200 vout.t177 a_2876_4988.t74 vss.t22 vss sky130_fd_pr__nfet_01v8_lvt ad=0p pd=0u as=0p ps=0u w=3e+06u l=350000u
X201 vss.t21 a_2876_4988.t75 vout.t178 vss sky130_fd_pr__nfet_01v8_lvt ad=0p pd=0u as=0p ps=0u w=3e+06u l=350000u
X202 vout a_13743_n3929# sky130_fd_pr__cap_mim_m3_1 l=2.9e+07u w=2.9e+07u
X203 a_6694_n4810.t18 vn.t9 a_6320_n344.t34 vdd sky130_fd_pr__pfet_01v8_lvt ad=0p pd=0u as=0p ps=0u w=4e+06u l=350000u
X204 vss.t20 a_2876_4988.t76 vout.t179 vss sky130_fd_pr__nfet_01v8_lvt ad=0p pd=0u as=0p ps=0u w=3e+06u l=350000u
X205 vout.t20 vbias.t131 vdd.t26 vdd sky130_fd_pr__pfet_01v8_lvt ad=0p pd=0u as=0p ps=0u w=4e+06u l=2e+06u
X206 vdd.t25 vbias.t132 a_6320_n344.t8 vdd sky130_fd_pr__pfet_01v8_lvt ad=0p pd=0u as=0p ps=0u w=4e+06u l=2e+06u
X207 a_6320_n344.t7 vbias.t133 vdd.t24 vdd sky130_fd_pr__pfet_01v8_lvt ad=0p pd=0u as=0p ps=0u w=4e+06u l=2e+06u
X208 vss.t19 a_2876_4988.t77 vout.t180 vss sky130_fd_pr__nfet_01v8_lvt ad=0p pd=0u as=0p ps=0u w=3e+06u l=350000u
X209 vss.t18 a_2876_4988.t78 vout.t181 vss sky130_fd_pr__nfet_01v8_lvt ad=0p pd=0u as=0p ps=0u w=3e+06u l=350000u
X210 vbias.t3 vbias.t2 vdd.t23 vdd sky130_fd_pr__pfet_01v8_lvt ad=0p pd=0u as=0p ps=0u w=4e+06u l=2e+06u
X211 vout.t19 vbias.t134 vdd.t22 vdd sky130_fd_pr__pfet_01v8_lvt ad=0p pd=0u as=0p ps=0u w=4e+06u l=2e+06u
X212 vout.t18 vbias.t135 vdd.t21 vdd sky130_fd_pr__pfet_01v8_lvt ad=0p pd=0u as=0p ps=0u w=4e+06u l=2e+06u
X213 vss.t17 a_2876_4988.t79 vout.t182 vss sky130_fd_pr__nfet_01v8_lvt ad=0p pd=0u as=0p ps=0u w=3e+06u l=350000u
X214 vout.t183 a_2876_4988.t80 vss.t16 vss sky130_fd_pr__nfet_01v8_lvt ad=0p pd=0u as=0p ps=0u w=3e+06u l=350000u
X215 vdd.t20 vbias.t136 vout.t17 vdd sky130_fd_pr__pfet_01v8_lvt ad=0p pd=0u as=0p ps=0u w=4e+06u l=2e+06u
X216 a_6320_n344.t19 vp.t9 a_2876_4988.t14 vdd sky130_fd_pr__pfet_01v8_lvt ad=0p pd=0u as=0p ps=0u w=4e+06u l=350000u
X217 vss.t15 a_2876_4988.t81 vout.t184 vss sky130_fd_pr__nfet_01v8_lvt ad=0p pd=0u as=0p ps=0u w=3e+06u l=350000u
X218 vdd.t19 vbias.t0 vbias.t1 vdd sky130_fd_pr__pfet_01v8_lvt ad=0p pd=0u as=0p ps=0u w=4e+06u l=2e+06u
X219 vout.t185 a_2876_4988.t82 vss.t14 vss sky130_fd_pr__nfet_01v8_lvt ad=0p pd=0u as=0p ps=0u w=3e+06u l=350000u
X220 vss.t84 a_6694_n4810.t8 a_6694_n4810.t9 vss sky130_fd_pr__nfet_01v8_lvt ad=0p pd=0u as=0p ps=0u w=3e+06u l=350000u
X221 a_6694_n4810.t7 vn.t10 a_6320_n344.t31 vdd sky130_fd_pr__pfet_01v8_lvt ad=0p pd=0u as=0p ps=0u w=4e+06u l=350000u
X222 a_6320_n344.t6 vbias.t137 vdd.t18 vdd sky130_fd_pr__pfet_01v8_lvt ad=0p pd=0u as=0p ps=0u w=4e+06u l=2e+06u
X223 vout.t16 vbias.t138 vdd.t17 vdd sky130_fd_pr__pfet_01v8_lvt ad=0p pd=0u as=0p ps=0u w=4e+06u l=2e+06u
X224 vdd.t16 vbias.t139 vout.t15 vdd sky130_fd_pr__pfet_01v8_lvt ad=0p pd=0u as=0p ps=0u w=4e+06u l=2e+06u
X225 vout.t14 vbias.t140 vdd.t15 vdd sky130_fd_pr__pfet_01v8_lvt ad=0p pd=0u as=0p ps=0u w=4e+06u l=2e+06u
X226 vdd.t14 vbias.t141 a_6320_n344.t5 vdd sky130_fd_pr__pfet_01v8_lvt ad=0p pd=0u as=0p ps=0u w=4e+06u l=2e+06u
X227 vout.t13 vbias.t142 vdd.t13 vdd sky130_fd_pr__pfet_01v8_lvt ad=0p pd=0u as=0p ps=0u w=4e+06u l=2e+06u
X228 vdd.t12 vbias.t143 vout.t12 vdd sky130_fd_pr__pfet_01v8_lvt ad=0p pd=0u as=0p ps=0u w=4e+06u l=2e+06u
X229 vout.t186 a_2876_4988.t83 vss.t13 vss sky130_fd_pr__nfet_01v8_lvt ad=0p pd=0u as=0p ps=0u w=3e+06u l=350000u
X230 vout.t187 a_2876_4988.t84 vss.t12 vss sky130_fd_pr__nfet_01v8_lvt ad=0p pd=0u as=0p ps=0u w=3e+06u l=350000u
X231 vout.t11 vbias.t144 vdd.t11 vdd sky130_fd_pr__pfet_01v8_lvt ad=0p pd=0u as=0p ps=0u w=4e+06u l=2e+06u
X232 vss.t83 a_6694_n4810.t23 a_2876_4988.t5 vss sky130_fd_pr__nfet_01v8_lvt ad=0p pd=0u as=0p ps=0u w=3e+06u l=350000u
X233 vout.t188 a_2876_4988.t85 vss.t11 vss sky130_fd_pr__nfet_01v8_lvt ad=0p pd=0u as=0p ps=0u w=3e+06u l=350000u
X234 vout.t189 a_2876_4988.t86 vss.t10 vss sky130_fd_pr__nfet_01v8_lvt ad=0p pd=0u as=0p ps=0u w=3e+06u l=350000u
X235 vss.t9 a_2876_4988.t87 vout.t190 vss sky130_fd_pr__nfet_01v8_lvt ad=0p pd=0u as=0p ps=0u w=3e+06u l=350000u
X236 vdd.t10 vbias.t145 vout.t10 vdd sky130_fd_pr__pfet_01v8_lvt ad=0p pd=0u as=0p ps=0u w=4e+06u l=2e+06u
X237 vss.t8 a_2876_4988.t88 vout.t191 vss sky130_fd_pr__nfet_01v8_lvt ad=0p pd=0u as=0p ps=0u w=3e+06u l=350000u
X238 vout.t9 vbias.t146 vdd.t9 vdd sky130_fd_pr__pfet_01v8_lvt ad=0p pd=0u as=0p ps=0u w=4e+06u l=2e+06u
X239 vdd.t8 vbias.t147 vout.t8 vdd sky130_fd_pr__pfet_01v8_lvt ad=0p pd=0u as=0p ps=0u w=4e+06u l=2e+06u
X240 vss.t7 a_2876_4988.t89 vout.t192 vss sky130_fd_pr__nfet_01v8_lvt ad=0p pd=0u as=0p ps=0u w=3e+06u l=350000u
X241 vss.t6 a_2876_4988.t90 vout.t193 vss sky130_fd_pr__nfet_01v8_lvt ad=0p pd=0u as=0p ps=0u w=3e+06u l=350000u
X242 vdd.t7 vbias.t148 vout.t7 vdd sky130_fd_pr__pfet_01v8_lvt ad=0p pd=0u as=0p ps=0u w=4e+06u l=2e+06u
X243 vout.t194 a_2876_4988.t91 vss.t5 vss sky130_fd_pr__nfet_01v8_lvt ad=0p pd=0u as=0p ps=0u w=3e+06u l=350000u
X244 vdd.t6 vbias.t149 vout.t6 vdd sky130_fd_pr__pfet_01v8_lvt ad=0p pd=0u as=0p ps=0u w=4e+06u l=2e+06u
X245 vout.t5 vbias.t150 vdd.t5 vdd sky130_fd_pr__pfet_01v8_lvt ad=0p pd=0u as=0p ps=0u w=4e+06u l=2e+06u
X246 vout.t195 a_2876_4988.t92 vss.t4 vss sky130_fd_pr__nfet_01v8_lvt ad=0p pd=0u as=0p ps=0u w=3e+06u l=350000u
X247 vss.t3 a_2876_4988.t93 vout.t196 vss sky130_fd_pr__nfet_01v8_lvt ad=0p pd=0u as=0p ps=0u w=3e+06u l=350000u
X248 vdd.t4 vbias.t151 vout.t4 vdd sky130_fd_pr__pfet_01v8_lvt ad=0p pd=0u as=0p ps=0u w=4e+06u l=2e+06u
X249 a_6320_n344.t35 vn.t11 a_6694_n4810.t19 vdd sky130_fd_pr__pfet_01v8_lvt ad=0p pd=0u as=0p ps=0u w=4e+06u l=350000u
X250 vout.t0 vbias.t152 vdd.t3 vdd sky130_fd_pr__pfet_01v8_lvt ad=0p pd=0u as=0p ps=0u w=4e+06u l=2e+06u
X251 vout.t1 vbias.t153 vdd.t2 vdd sky130_fd_pr__pfet_01v8_lvt ad=0p pd=0u as=0p ps=0u w=4e+06u l=2e+06u
X252 vdd.t1 vbias.t154 vout.t3 vdd sky130_fd_pr__pfet_01v8_lvt ad=0p pd=0u as=0p ps=0u w=4e+06u l=2e+06u
X253 vout.t197 a_2876_4988.t94 vss.t2 vss sky130_fd_pr__nfet_01v8_lvt ad=0p pd=0u as=0p ps=0u w=3e+06u l=350000u
X254 a_2876_4988.t15 vp.t10 a_6320_n344.t18 vdd sky130_fd_pr__pfet_01v8_lvt ad=0p pd=0u as=0p ps=0u w=4e+06u l=350000u
X255 a_6320_n344.t17 vp.t11 a_2876_4988.t16 vdd sky130_fd_pr__pfet_01v8_lvt ad=0p pd=0u as=0p ps=0u w=4e+06u l=350000u
X256 vss.t1 a_2876_4988.t95 vout.t198 vss sky130_fd_pr__nfet_01v8_lvt ad=0p pd=0u as=0p ps=0u w=3e+06u l=350000u
X257 vss.t0 a_2876_4988.t96 vout.t199 vss sky130_fd_pr__nfet_01v8_lvt ad=0p pd=0u as=0p ps=0u w=3e+06u l=350000u
X258 vout.t2 vbias.t155 vdd.t0 vdd sky130_fd_pr__pfet_01v8_lvt ad=0p pd=0u as=0p ps=0u w=4e+06u l=2e+06u
R0 vbias.n171 vbias.n168 207.239
R1 vbias.n84 vbias.n82 207.239
R2 vbias.n10 vbias.n6 207.239
R3 vbias.n8 vbias.n7 207.239
R4 vbias.n165 vbias.n163 207.239
R5 vbias.n203 vbias.n200 207.239
R6 vbias.n196 vbias.n193 207.239
R7 vbias.n220 vbias.n219 207.239
R8 vbias.n222 vbias.n218 207.239
R9 vbias.n72 vbias.n12 160.035
R10 vbias.n72 vbias.n71 160.035
R11 vbias.n155 vbias.n154 160.035
R12 vbias.n329 vbias.n324 160.035
R13 vbias.n230 vbias.n0 160.035
R14 vbias.n230 vbias.n1 160.035
R15 vbias.n235 vbias.n234 115.9
R16 vbias.n232 vbias.n231 115.9
R17 vbias.n184 vbias.n88 108.364
R18 vbias.n184 vbias.n90 108.364
R19 vbias.n179 vbias.n92 108.364
R20 vbias.n179 vbias.n175 108.364
R21 vbias.n182 vbias.n181 93.114
R22 vbias.n177 vbias.n176 93.114
R23 vbias.n173 vbias.n172 92.98
R24 vbias.n86 vbias.n85 92.98
R25 vbias.n205 vbias.n204 92.98
R26 vbias.n224 vbias.n223 92.98
R27 vbias.n79 vbias.n78 71.764
R28 vbias.n79 vbias.n74 71.764
R29 vbias.n76 vbias.n75 71.764
R30 vbias.n160 vbias.n159 71.764
R31 vbias.n160 vbias.n157 71.764
R32 vbias.n94 vbias.n93 71.764
R33 vbias.n229 vbias.n208 71.764
R34 vbias.n229 vbias.n228 71.764
R35 vbias.n189 vbias.n188 71.764
R36 vbias.n189 vbias.n4 71.764
R37 vbias.n215 vbias.n212 71.764
R38 vbias.n215 vbias.n214 71.764
R39 vbias.n328 vbias.n327 71.764
R40 vbias.n99 vbias.n96 66.423
R41 vbias.n16 vbias.n13 66.423
R42 vbias.n19 vbias.n16 66.422
R43 vbias.n22 vbias.n19 66.422
R44 vbias.n25 vbias.n22 66.422
R45 vbias.n28 vbias.n25 66.422