* NGSPICE file created from OTA_int_revised_post.ext - technology: sky130A

.subckt OTA_int_revised_post vdd vp vn vbias vss vout
X0 vdd.t95 vbias.t48 vout.t66 vdd sky130_fd_pr__pfet_01v8_lvt ad=0p pd=0u as=0p ps=0u w=2e+06u l=1e+06u
X1 vss.t63 a_21167_3051.t33 vout.t4 vss sky130_fd_pr__nfet_01v8_lvt ad=0p pd=0u as=0p ps=0u w=1e+06u l=1e+06u
X2 vss.t62 a_21167_3051.t34 vout.t108 vss sky130_fd_pr__nfet_01v8_lvt ad=0p pd=0u as=0p ps=0u w=1e+06u l=1e+06u
X3 vss.t61 a_21167_3051.t35 vout.t109 vss sky130_fd_pr__nfet_01v8_lvt ad=0p pd=0u as=0p ps=0u w=1e+06u l=1e+06u
X4 vout.t2 a_21167_3051.t36 vss.t60 vss sky130_fd_pr__nfet_01v8_lvt ad=0p pd=0u as=0p ps=0u w=1e+06u l=1e+06u
X5 w_20027_5063.t17 vn.t0 a_20223_2963.t0 w_20027_5063# sky130_fd_pr__pfet_01v8_lvt ad=0p pd=0u as=0p ps=0u w=4e+06u l=1e+06u
X6 a_21167_3051.t0 vp.t0 w_20027_5063.t0 w_20027_5063# sky130_fd_pr__pfet_01v8_lvt ad=0p pd=0u as=0p ps=0u w=4e+06u l=1e+06u
X7 a_21167_3051.t11 a_20223_2963.t48 vss.t85 vss sky130_fd_pr__nfet_01v8_lvt ad=0p pd=0u as=0p ps=0u w=1e+06u l=1e+06u
X8 vdd.t94 vbias.t40 vbias.t41 vdd sky130_fd_pr__pfet_01v8_lvt ad=0p pd=0u as=0p ps=0u w=2e+06u l=1e+06u
X9 w_20027_5063.t50 vp.t1 a_21167_3051.t23 w_20027_5063# sky130_fd_pr__pfet_01v8_lvt ad=0p pd=0u as=0p ps=0u w=4e+06u l=1e+06u
X10 vss.t78 a_20223_2963.t49 a_21167_3051.t9 vss sky130_fd_pr__nfet_01v8_lvt ad=0p pd=0u as=0p ps=0u w=1e+06u l=1e+06u
X11 a_20223_2963.t13 vn.t1 w_20027_5063.t16 w_20027_5063# sky130_fd_pr__pfet_01v8_lvt ad=0p pd=0u as=0p ps=0u w=4e+06u l=1e+06u
X12 vout.t3 a_21167_3051.t37 vss.t59 vss sky130_fd_pr__nfet_01v8_lvt ad=0p pd=0u as=0p ps=0u w=1e+06u l=1e+06u
X13 w_20027_5063.t41 vbias.t49 vdd.t93 vdd sky130_fd_pr__pfet_01v8_lvt ad=0p pd=0u as=0p ps=0u w=2e+06u l=1e+06u
X14 a_20223_2963.t47 a_20223_2963.t46 vss.t75 vss sky130_fd_pr__nfet_01v8_lvt ad=0p pd=0u as=0p ps=0u w=1e+06u l=1e+06u
X15 vdd.t92 vbias.t2 vbias.t3 vdd sky130_fd_pr__pfet_01v8_lvt ad=0p pd=0u as=0p ps=0u w=2e+06u l=1e+06u
X16 w_20027_5063.t40 vbias.t50 vdd.t91 vdd sky130_fd_pr__pfet_01v8_lvt ad=0p pd=0u as=0p ps=0u w=2e+06u l=1e+06u
X17 vdd.t90 vbias.t51 vout.t61 vdd sky130_fd_pr__pfet_01v8_lvt ad=0p pd=0u as=0p ps=0u w=2e+06u l=1e+06u
X18 vss.t58 a_21167_3051.t38 vout.t106 vss sky130_fd_pr__nfet_01v8_lvt ad=0p pd=0u as=0p ps=0u w=1e+06u l=1e+06u
X19 vout.t107 a_21167_3051.t39 vss.t57 vss sky130_fd_pr__nfet_01v8_lvt ad=0p pd=0u as=0p ps=0u w=1e+06u l=1e+06u
X20 vss.t56 a_21167_3051.t40 vout.t31 vss sky130_fd_pr__nfet_01v8_lvt ad=0p pd=0u as=0p ps=0u w=1e+06u l=1e+06u
X21 vout.t49 vbias.t52 vdd.t89 vdd sky130_fd_pr__pfet_01v8_lvt ad=0p pd=0u as=0p ps=0u w=2e+06u l=1e+06u
X22 vss.t55 a_21167_3051.t41 vout.t32 vss sky130_fd_pr__nfet_01v8_lvt ad=0p pd=0u as=0p ps=0u w=1e+06u l=1e+06u
X23 vout.t11 a_21167_3051.t42 vss.t54 vss sky130_fd_pr__nfet_01v8_lvt ad=0p pd=0u as=0p ps=0u w=1e+06u l=1e+06u
X24 w_20027_5063.t15 vn.t2 a_20223_2963.t14 w_20027_5063# sky130_fd_pr__pfet_01v8_lvt ad=0p pd=0u as=0p ps=0u w=4e+06u l=1e+06u
X25 vdd.t88 vbias.t53 vout.t63 vdd sky130_fd_pr__pfet_01v8_lvt ad=0p pd=0u as=0p ps=0u w=2e+06u l=1e+06u
X26 vdd.t87 vbias.t10 vbias.t11 vdd sky130_fd_pr__pfet_01v8_lvt ad=0p pd=0u as=0p ps=0u w=2e+06u l=1e+06u
X27 w_20027_5063.t39 vbias.t54 vdd.t86 vdd sky130_fd_pr__pfet_01v8_lvt ad=0p pd=0u as=0p ps=0u w=2e+06u l=1e+06u
X28 vout.t50 vbias.t55 vdd.t85 vdd sky130_fd_pr__pfet_01v8_lvt ad=0p pd=0u as=0p ps=0u w=2e+06u l=1e+06u
X29 vdd.t84 vbias.t56 w_20027_5063.t38 vdd sky130_fd_pr__pfet_01v8_lvt ad=0p pd=0u as=0p ps=0u w=2e+06u l=1e+06u
X30 a_20223_2963.t9 vn.t3 w_20027_5063.t14 w_20027_5063# sky130_fd_pr__pfet_01v8_lvt ad=0p pd=0u as=0p ps=0u w=4e+06u l=1e+06u
X31 vss.t53 a_21167_3051.t43 vout.t12 vss sky130_fd_pr__nfet_01v8_lvt ad=0p pd=0u as=0p ps=0u w=1e+06u l=1e+06u
X32 a_21167_3051.t8 a_20223_2963.t50 vss.t76 vss sky130_fd_pr__nfet_01v8_lvt ad=0p pd=0u as=0p ps=0u w=1e+06u l=1e+06u
X33 vdd.t83 vbias.t57 w_20027_5063.t37 vdd sky130_fd_pr__pfet_01v8_lvt ad=0p pd=0u as=0p ps=0u w=2e+06u l=1e+06u
X34 vdd.t82 vbias.t58 vout.t67 vdd sky130_fd_pr__pfet_01v8_lvt ad=0p pd=0u as=0p ps=0u w=2e+06u l=1e+06u
X35 vout.t104 a_21167_3051.t44 vss.t52 vss sky130_fd_pr__nfet_01v8_lvt ad=0p pd=0u as=0p ps=0u w=1e+06u l=1e+06u
X36 vout.t105 a_21167_3051.t45 vss.t51 vss sky130_fd_pr__nfet_01v8_lvt ad=0p pd=0u as=0p ps=0u w=1e+06u l=1e+06u
X37 vss.t70 a_20223_2963.t44 a_20223_2963.t45 vss sky130_fd_pr__nfet_01v8_lvt ad=0p pd=0u as=0p ps=0u w=1e+06u l=1e+06u
X38 vout.t37 vbias.t59 vdd.t81 vdd sky130_fd_pr__pfet_01v8_lvt ad=0p pd=0u as=0p ps=0u w=2e+06u l=1e+06u
X39 vss.t50 a_21167_3051.t46 vout.t92 vss sky130_fd_pr__nfet_01v8_lvt ad=0p pd=0u as=0p ps=0u w=1e+06u l=1e+06u
X40 vdd.t80 vbias.t60 vout.t52 vdd sky130_fd_pr__pfet_01v8_lvt ad=0p pd=0u as=0p ps=0u w=2e+06u l=1e+06u
X41 w_20027_5063.t36 vbias.t61 vdd.t79 vdd sky130_fd_pr__pfet_01v8_lvt ad=0p pd=0u as=0p ps=0u w=2e+06u l=1e+06u
X42 vout.t93 a_21167_3051.t47 vss.t49 vss sky130_fd_pr__nfet_01v8_lvt ad=0p pd=0u as=0p ps=0u w=1e+06u l=1e+06u
X43 vdd.t78 vbias.t62 w_20027_5063.t35 vdd sky130_fd_pr__pfet_01v8_lvt ad=0p pd=0u as=0p ps=0u w=2e+06u l=1e+06u
X44 vout.t79 vbias.t63 vdd.t77 vdd sky130_fd_pr__pfet_01v8_lvt ad=0p pd=0u as=0p ps=0u w=2e+06u l=1e+06u
X45 w_20027_5063.t13 vn.t4 a_20223_2963.t10 w_20027_5063# sky130_fd_pr__pfet_01v8_lvt ad=0p pd=0u as=0p ps=0u w=4e+06u l=1e+06u
X46 w_20027_5063.t49 vp.t2 a_21167_3051.t22 w_20027_5063# sky130_fd_pr__pfet_01v8_lvt ad=0p pd=0u as=0p ps=0u w=4e+06u l=1e+06u
X47 vss.t82 a_20223_2963.t42 a_20223_2963.t43 vss sky130_fd_pr__nfet_01v8_lvt ad=0p pd=0u as=0p ps=0u w=1e+06u l=1e+06u
X48 vbias.t45 vbias.t44 vdd.t76 vdd sky130_fd_pr__pfet_01v8_lvt ad=0p pd=0u as=0p ps=0u w=2e+06u l=1e+06u
X49 a_21167_3051.t21 vp.t3 w_20027_5063.t48 w_20027_5063# sky130_fd_pr__pfet_01v8_lvt ad=0p pd=0u as=0p ps=0u w=4e+06u l=1e+06u
X50 vss.t48 a_21167_3051.t48 vout.t25 vss sky130_fd_pr__nfet_01v8_lvt ad=0p pd=0u as=0p ps=0u w=1e+06u l=1e+06u
X51 vbias.t7 vbias.t6 vdd.t75 vdd sky130_fd_pr__pfet_01v8_lvt ad=0p pd=0u as=0p ps=0u w=2e+06u l=1e+06u
X52 vout.t26 a_21167_3051.t49 vss.t47 vss sky130_fd_pr__nfet_01v8_lvt ad=0p pd=0u as=0p ps=0u w=1e+06u l=1e+06u
X53 vss.t80 a_20223_2963.t40 a_20223_2963.t41 vss sky130_fd_pr__nfet_01v8_lvt ad=0p pd=0u as=0p ps=0u w=1e+06u l=1e+06u
X54 vout.t102 a_21167_3051.t50 vss.t46 vss sky130_fd_pr__nfet_01v8_lvt ad=0p pd=0u as=0p ps=0u w=1e+06u l=1e+06u
X55 vdd.t74 vbias.t64 w_20027_5063.t34 vdd sky130_fd_pr__pfet_01v8_lvt ad=0p pd=0u as=0p ps=0u w=2e+06u l=1e+06u
X56 vout.t38 vbias.t65 vdd.t73 vdd sky130_fd_pr__pfet_01v8_lvt ad=0p pd=0u as=0p ps=0u w=2e+06u l=1e+06u
X57 vss.t45 a_21167_3051.t51 vout.t103 vss sky130_fd_pr__nfet_01v8_lvt ad=0p pd=0u as=0p ps=0u w=1e+06u l=1e+06u
X58 vout.t96 a_21167_3051.t52 vss.t44 vss sky130_fd_pr__nfet_01v8_lvt ad=0p pd=0u as=0p ps=0u w=1e+06u l=1e+06u
X59 vout.t97 a_21167_3051.t53 vss.t43 vss sky130_fd_pr__nfet_01v8_lvt ad=0p pd=0u as=0p ps=0u w=1e+06u l=1e+06u
X60 vout.t80 vbias.t66 vdd.t72 vdd sky130_fd_pr__pfet_01v8_lvt ad=0p pd=0u as=0p ps=0u w=2e+06u l=1e+06u
X61 vdd.t71 vbias.t67 vout.t81 vdd sky130_fd_pr__pfet_01v8_lvt ad=0p pd=0u as=0p ps=0u w=2e+06u l=1e+06u
X62 a_21167_3051.t20 vp.t4 w_20027_5063.t47 w_20027_5063# sky130_fd_pr__pfet_01v8_lvt ad=0p pd=0u as=0p ps=0u w=4e+06u l=1e+06u
X63 vout.t90 a_21167_3051.t54 vss.t42 vss sky130_fd_pr__nfet_01v8_lvt ad=0p pd=0u as=0p ps=0u w=1e+06u l=1e+06u
X64 w_20027_5063.t46 vp.t5 a_21167_3051.t19 w_20027_5063# sky130_fd_pr__pfet_01v8_lvt ad=0p pd=0u as=0p ps=0u w=4e+06u l=1e+06u
X65 vdd.t70 vbias.t28 vbias.t29 vdd sky130_fd_pr__pfet_01v8_lvt ad=0p pd=0u as=0p ps=0u w=2e+06u l=1e+06u
X66 vdd.t69 vbias.t68 vout.t68 vdd sky130_fd_pr__pfet_01v8_lvt ad=0p pd=0u as=0p ps=0u w=2e+06u l=1e+06u
X67 vbias.t31 vbias.t30 vdd.t68 vdd sky130_fd_pr__pfet_01v8_lvt ad=0p pd=0u as=0p ps=0u w=2e+06u l=1e+06u
X68 vdd.t67 vbias.t69 vout.t39 vdd sky130_fd_pr__pfet_01v8_lvt ad=0p pd=0u as=0p ps=0u w=2e+06u l=1e+06u
X69 a_20223_2963.t11 vn.t5 w_20027_5063.t12 w_20027_5063# sky130_fd_pr__pfet_01v8_lvt ad=0p pd=0u as=0p ps=0u w=4e+06u l=1e+06u
X70 vdd.t66 vbias.t14 vbias.t15 vdd sky130_fd_pr__pfet_01v8_lvt ad=0p pd=0u as=0p ps=0u w=2e+06u l=1e+06u
X71 vout.t91 a_21167_3051.t55 vss.t41 vss sky130_fd_pr__nfet_01v8_lvt ad=0p pd=0u as=0p ps=0u w=1e+06u l=1e+06u
X72 vss.t40 a_21167_3051.t56 vout.t23 vss sky130_fd_pr__nfet_01v8_lvt ad=0p pd=0u as=0p ps=0u w=1e+06u l=1e+06u
X73 vout.t69 vbias.t70 vdd.t65 vdd sky130_fd_pr__pfet_01v8_lvt ad=0p pd=0u as=0p ps=0u w=2e+06u l=1e+06u
X74 a_21167_3051.t12 a_20223_2963.t51 vss.t88 vss sky130_fd_pr__nfet_01v8_lvt ad=0p pd=0u as=0p ps=0u w=1e+06u l=1e+06u
X75 vout.t40 vbias.t71 vdd.t64 vdd sky130_fd_pr__pfet_01v8_lvt ad=0p pd=0u as=0p ps=0u w=2e+06u l=1e+06u
X76 vss.t89 a_20223_2963.t52 a_21167_3051.t13 vss sky130_fd_pr__nfet_01v8_lvt ad=0p pd=0u as=0p ps=0u w=1e+06u l=1e+06u
X77 vout.t24 a_21167_3051.t57 vss.t39 vss sky130_fd_pr__nfet_01v8_lvt ad=0p pd=0u as=0p ps=0u w=1e+06u l=1e+06u
X78 vout.t29 a_21167_3051.t58 vss.t38 vss sky130_fd_pr__nfet_01v8_lvt ad=0p pd=0u as=0p ps=0u w=1e+06u l=1e+06u
X79 vdd.t63 vbias.t72 vout.t53 vdd sky130_fd_pr__pfet_01v8_lvt ad=0p pd=0u as=0p ps=0u w=2e+06u l=1e+06u
X80 vbias.t23 vbias.t22 vdd.t62 vdd sky130_fd_pr__pfet_01v8_lvt ad=0p pd=0u as=0p ps=0u w=2e+06u l=1e+06u
X81 vout.t51 vbias.t73 vdd.t61 vdd sky130_fd_pr__pfet_01v8_lvt ad=0p pd=0u as=0p ps=0u w=2e+06u l=1e+06u
X82 w_20027_5063.t55 vp.t6 a_21167_3051.t32 w_20027_5063# sky130_fd_pr__pfet_01v8_lvt ad=0p pd=0u as=0p ps=0u w=4e+06u l=1e+06u
X83 vss.t72 a_20223_2963.t53 a_21167_3051.t7 vss sky130_fd_pr__nfet_01v8_lvt ad=0p pd=0u as=0p ps=0u w=1e+06u l=1e+06u
X84 a_20223_2963.t1 vn.t6 w_20027_5063.t11 w_20027_5063# sky130_fd_pr__pfet_01v8_lvt ad=0p pd=0u as=0p ps=0u w=4e+06u l=1e+06u
X85 vout.t41 vbias.t74 vdd.t60 vdd sky130_fd_pr__pfet_01v8_lvt ad=0p pd=0u as=0p ps=0u w=2e+06u l=1e+06u
X86 vbias.t47 vbias.t46 vdd.t59 vdd sky130_fd_pr__pfet_01v8_lvt ad=0p pd=0u as=0p ps=0u w=2e+06u l=1e+06u
X87 vdd.t58 vbias.t8 vbias.t9 vdd sky130_fd_pr__pfet_01v8_lvt ad=0p pd=0u as=0p ps=0u w=2e+06u l=1e+06u
X88 vout.t30 a_21167_3051.t59 vss.t37 vss sky130_fd_pr__nfet_01v8_lvt ad=0p pd=0u as=0p ps=0u w=1e+06u l=1e+06u
X89 a_23819_6897# vout sky130_fd_pr__cap_mim_m3_1 l=1.4e+07u w=3e+07u
X90 a_21167_3051.t15 a_20223_2963.t54 vss.t91 vss sky130_fd_pr__nfet_01v8_lvt ad=0p pd=0u as=0p ps=0u w=1e+06u l=1e+06u
X91 vss.t93 a_20223_2963.t55 a_21167_3051.t25 vss sky130_fd_pr__nfet_01v8_lvt ad=0p pd=0u as=0p ps=0u w=1e+06u l=1e+06u
X92 vss.t83 a_20223_2963.t38 a_20223_2963.t39 vss sky130_fd_pr__nfet_01v8_lvt ad=0p pd=0u as=0p ps=0u w=1e+06u l=1e+06u
X93 w_20027_5063.t33 vbias.t75 vdd.t57 vdd sky130_fd_pr__pfet_01v8_lvt ad=0p pd=0u as=0p ps=0u w=2e+06u l=1e+06u
X94 vbias.t13 vbias.t12 vdd.t56 vdd sky130_fd_pr__pfet_01v8_lvt ad=0p pd=0u as=0p ps=0u w=2e+06u l=1e+06u
X95 vout.t70 vbias.t76 vdd.t55 vdd sky130_fd_pr__pfet_01v8_lvt ad=0p pd=0u as=0p ps=0u w=2e+06u l=1e+06u
X96 vout.t9 a_21167_3051.t60 vss.t36 vss sky130_fd_pr__nfet_01v8_lvt ad=0p pd=0u as=0p ps=0u w=1e+06u l=1e+06u
X97 vout.t10 a_21167_3051.t61 vss.t35 vss sky130_fd_pr__nfet_01v8_lvt ad=0p pd=0u as=0p ps=0u w=1e+06u l=1e+06u
X98 vss.t34 a_21167_3051.t62 vout.t100 vss sky130_fd_pr__nfet_01v8_lvt ad=0p pd=0u as=0p ps=0u w=1e+06u l=1e+06u
X99 vout.t48 vbias.t77 vdd.t54 vdd sky130_fd_pr__pfet_01v8_lvt ad=0p pd=0u as=0p ps=0u w=2e+06u l=1e+06u
X100 w_20027_5063.t10 vn.t7 a_20223_2963.t6 w_20027_5063# sky130_fd_pr__pfet_01v8_lvt ad=0p pd=0u as=0p ps=0u w=4e+06u l=1e+06u
X101 vout.t101 a_21167_3051.t63 vss.t33 vss sky130_fd_pr__nfet_01v8_lvt ad=0p pd=0u as=0p ps=0u w=1e+06u l=1e+06u
X102 w_20027_5063.t32 vbias.t78 vdd.t53 vdd sky130_fd_pr__pfet_01v8_lvt ad=0p pd=0u as=0p ps=0u w=2e+06u l=1e+06u
X103 vdd.t52 vbias.t32 vbias.t33 vdd sky130_fd_pr__pfet_01v8_lvt ad=0p pd=0u as=0p ps=0u w=2e+06u l=1e+06u
X104 a_21167_3051.t14 vp.t7 w_20027_5063.t42 w_20027_5063# sky130_fd_pr__pfet_01v8_lvt ad=0p pd=0u as=0p ps=0u w=4e+06u l=1e+06u
X105 a_21167_3051.t2 a_23819_6897# vss sky130_fd_pr__res_xhigh_po w=350000u l=2.8e+06u
X106 a_20223_2963.t12 vn.t8 w_20027_5063.t9 w_20027_5063# sky130_fd_pr__pfet_01v8_lvt ad=0p pd=0u as=0p ps=0u w=4e+06u l=1e+06u
X107 a_20223_2963.t37 a_20223_2963.t36 vss.t73 vss sky130_fd_pr__nfet_01v8_lvt ad=0p pd=0u as=0p ps=0u w=1e+06u l=1e+06u
X108 vdd.t51 vbias.t79 vout.t36 vdd sky130_fd_pr__pfet_01v8_lvt ad=0p pd=0u as=0p ps=0u w=2e+06u l=1e+06u
X109 w_20027_5063.t8 vn.t9 a_20223_2963.t2 w_20027_5063# sky130_fd_pr__pfet_01v8_lvt ad=0p pd=0u as=0p ps=0u w=4e+06u l=1e+06u
X110 w_20027_5063.t31 vbias.t80 vdd.t50 vdd sky130_fd_pr__pfet_01v8_lvt ad=0p pd=0u as=0p ps=0u w=2e+06u l=1e+06u
X111 vdd.t49 vbias.t81 w_20027_5063.t30 vdd sky130_fd_pr__pfet_01v8_lvt ad=0p pd=0u as=0p ps=0u w=2e+06u l=1e+06u
X112 vss.t64 a_20223_2963.t34 a_20223_2963.t35 vss sky130_fd_pr__nfet_01v8_lvt ad=0p pd=0u as=0p ps=0u w=1e+06u l=1e+06u
X113 vss.t32 a_21167_3051.t64 vout.t88 vss sky130_fd_pr__nfet_01v8_lvt ad=0p pd=0u as=0p ps=0u w=1e+06u l=1e+06u
X114 vss.t31 a_21167_3051.t65 vout.t89 vss sky130_fd_pr__nfet_01v8_lvt ad=0p pd=0u as=0p ps=0u w=1e+06u l=1e+06u
X115 vdd.t48 vbias.t82 vout.t54 vdd sky130_fd_pr__pfet_01v8_lvt ad=0p pd=0u as=0p ps=0u w=2e+06u l=1e+06u
X116 vout.t47 vbias.t83 vdd.t47 vdd sky130_fd_pr__pfet_01v8_lvt ad=0p pd=0u as=0p ps=0u w=2e+06u l=1e+06u
X117 vout.t21 a_21167_3051.t66 vss.t30 vss sky130_fd_pr__nfet_01v8_lvt ad=0p pd=0u as=0p ps=0u w=1e+06u l=1e+06u
X118 vdd.t46 vbias.t84 vout.t71 vdd sky130_fd_pr__pfet_01v8_lvt ad=0p pd=0u as=0p ps=0u w=2e+06u l=1e+06u
X119 vss.t29 a_21167_3051.t67 vout.t22 vss sky130_fd_pr__nfet_01v8_lvt ad=0p pd=0u as=0p ps=0u w=1e+06u l=1e+06u
X120 vout.t42 vbias.t85 vdd.t45 vdd sky130_fd_pr__pfet_01v8_lvt ad=0p pd=0u as=0p ps=0u w=2e+06u l=1e+06u
X121 vout.t98 a_21167_3051.t68 vss.t28 vss sky130_fd_pr__nfet_01v8_lvt ad=0p pd=0u as=0p ps=0u w=1e+06u l=1e+06u
X122 a_20223_2963.t7 vn.t10 w_20027_5063.t7 w_20027_5063# sky130_fd_pr__pfet_01v8_lvt ad=0p pd=0u as=0p ps=0u w=4e+06u l=1e+06u
X123 a_20223_2963.t33 a_20223_2963.t32 vss.t79 vss sky130_fd_pr__nfet_01v8_lvt ad=0p pd=0u as=0p ps=0u w=1e+06u l=1e+06u
X124 vdd.t44 vbias.t16 vbias.t17 vdd sky130_fd_pr__pfet_01v8_lvt ad=0p pd=0u as=0p ps=0u w=2e+06u l=1e+06u
X125 a_23819_6897# vout sky130_fd_pr__cap_mim_m3_1 l=3e+07u w=1.4e+07u
X126 vss.t27 a_21167_3051.t69 vout.t99 vss sky130_fd_pr__nfet_01v8_lvt ad=0p pd=0u as=0p ps=0u w=1e+06u l=1e+06u
X127 vdd.t43 vbias.t86 w_20027_5063.t29 vdd sky130_fd_pr__pfet_01v8_lvt ad=0p pd=0u as=0p ps=0u w=2e+06u l=1e+06u
X128 w_20027_5063.t28 vbias.t87 vdd.t42 vdd sky130_fd_pr__pfet_01v8_lvt ad=0p pd=0u as=0p ps=0u w=2e+06u l=1e+06u
X129 vss.t77 a_20223_2963.t30 a_20223_2963.t31 vss sky130_fd_pr__nfet_01v8_lvt ad=0p pd=0u as=0p ps=0u w=1e+06u l=1e+06u
X130 vout.t43 vbias.t88 vdd.t41 vdd sky130_fd_pr__pfet_01v8_lvt ad=0p pd=0u as=0p ps=0u w=2e+06u l=1e+06u
X131 vss.t26 a_21167_3051.t70 vout.t94 vss sky130_fd_pr__nfet_01v8_lvt ad=0p pd=0u as=0p ps=0u w=1e+06u l=1e+06u
X132 vss.t25 a_21167_3051.t71 vout.t95 vss sky130_fd_pr__nfet_01v8_lvt ad=0p pd=0u as=0p ps=0u w=1e+06u l=1e+06u
X133 vss.t95 a_20223_2963.t56 a_21167_3051.t31 vss sky130_fd_pr__nfet_01v8_lvt ad=0p pd=0u as=0p ps=0u w=1e+06u l=1e+06u
X134 a_21167_3051.t6 a_20223_2963.t57 vss.t69 vss sky130_fd_pr__nfet_01v8_lvt ad=0p pd=0u as=0p ps=0u w=1e+06u l=1e+06u
X135 vdd.t40 vbias.t89 vout.t55 vdd sky130_fd_pr__pfet_01v8_lvt ad=0p pd=0u as=0p ps=0u w=2e+06u l=1e+06u
X136 vout.t72 vbias.t90 vdd.t39 vdd sky130_fd_pr__pfet_01v8_lvt ad=0p pd=0u as=0p ps=0u w=2e+06u l=1e+06u
X137 vout.t86 a_21167_3051.t72 vss.t24 vss sky130_fd_pr__nfet_01v8_lvt ad=0p pd=0u as=0p ps=0u w=1e+06u l=1e+06u
X138 vout.t87 a_21167_3051.t73 vss.t23 vss sky130_fd_pr__nfet_01v8_lvt ad=0p pd=0u as=0p ps=0u w=1e+06u l=1e+06u
X139 w_20027_5063.t54 vp.t8 a_21167_3051.t29 w_20027_5063# sky130_fd_pr__pfet_01v8_lvt ad=0p pd=0u as=0p ps=0u w=4e+06u l=1e+06u
X140 vbias.t25 vbias.t24 vdd.t38 vdd sky130_fd_pr__pfet_01v8_lvt ad=0p pd=0u as=0p ps=0u w=2e+06u l=1e+06u
X141 vdd.t37 vbias.t91 vout.t56 vdd sky130_fd_pr__pfet_01v8_lvt ad=0p pd=0u as=0p ps=0u w=2e+06u l=1e+06u
X142 vss.t22 a_21167_3051.t74 vout.t19 vss sky130_fd_pr__nfet_01v8_lvt ad=0p pd=0u as=0p ps=0u w=1e+06u l=1e+06u
X143 a_21167_3051.t28 vp.t9 w_20027_5063.t53 w_20027_5063# sky130_fd_pr__pfet_01v8_lvt ad=0p pd=0u as=0p ps=0u w=4e+06u l=1e+06u
X144 a_21167_3051.t30 a_20223_2963.t58 vss.t94 vss sky130_fd_pr__nfet_01v8_lvt ad=0p pd=0u as=0p ps=0u w=1e+06u l=1e+06u
X145 vdd.t36 vbias.t92 w_20027_5063.t27 vdd sky130_fd_pr__pfet_01v8_lvt ad=0p pd=0u as=0p ps=0u w=2e+06u l=1e+06u
X146 vout.t60 vbias.t93 vdd.t35 vdd sky130_fd_pr__pfet_01v8_lvt ad=0p pd=0u as=0p ps=0u w=2e+06u l=1e+06u
X147 vdd.t34 vbias.t94 vout.t44 vdd sky130_fd_pr__pfet_01v8_lvt ad=0p pd=0u as=0p ps=0u w=2e+06u l=1e+06u
X148 a_21167_3051.t18 vp.t10 w_20027_5063.t45 w_20027_5063# sky130_fd_pr__pfet_01v8_lvt ad=0p pd=0u as=0p ps=0u w=4e+06u l=1e+06u
X149 w_20027_5063.t44 vp.t11 a_21167_3051.t17 w_20027_5063# sky130_fd_pr__pfet_01v8_lvt ad=0p pd=0u as=0p ps=0u w=4e+06u l=1e+06u
X150 vss.t21 a_21167_3051.t75 vout.t20 vss sky130_fd_pr__nfet_01v8_lvt ad=0p pd=0u as=0p ps=0u w=1e+06u l=1e+06u
X151 vbias.t19 vbias.t18 vdd.t33 vdd sky130_fd_pr__pfet_01v8_lvt ad=0p pd=0u as=0p ps=0u w=2e+06u l=1e+06u
X152 vss.t66 a_20223_2963.t59 a_21167_3051.t4 vss sky130_fd_pr__nfet_01v8_lvt ad=0p pd=0u as=0p ps=0u w=1e+06u l=1e+06u
X153 vdd.t32 vbias.t95 vout.t73 vdd sky130_fd_pr__pfet_01v8_lvt ad=0p pd=0u as=0p ps=0u w=2e+06u l=1e+06u
X154 vbias.t27 vbias.t26 vdd.t31 vdd sky130_fd_pr__pfet_01v8_lvt ad=0p pd=0u as=0p ps=0u w=2e+06u l=1e+06u
X155 vss.t20 a_21167_3051.t76 vout.t34 vss sky130_fd_pr__nfet_01v8_lvt ad=0p pd=0u as=0p ps=0u w=1e+06u l=1e+06u
X156 vss.t19 a_21167_3051.t77 vout.t35 vss sky130_fd_pr__nfet_01v8_lvt ad=0p pd=0u as=0p ps=0u w=1e+06u l=1e+06u
X157 vout.t27 a_21167_3051.t78 vss.t18 vss sky130_fd_pr__nfet_01v8_lvt ad=0p pd=0u as=0p ps=0u w=1e+06u l=1e+06u
X158 vout.t57 vbias.t96 vdd.t30 vdd sky130_fd_pr__pfet_01v8_lvt ad=0p pd=0u as=0p ps=0u w=2e+06u l=1e+06u
X159 a_20223_2963.t8 vn.t11 w_20027_5063.t6 w_20027_5063# sky130_fd_pr__pfet_01v8_lvt ad=0p pd=0u as=0p ps=0u w=4e+06u l=1e+06u
X160 vout.t74 vbias.t97 vdd.t29 vdd sky130_fd_pr__pfet_01v8_lvt ad=0p pd=0u as=0p ps=0u w=2e+06u l=1e+06u
X161 w_20027_5063.t26 vbias.t98 vdd.t28 vdd sky130_fd_pr__pfet_01v8_lvt ad=0p pd=0u as=0p ps=0u w=2e+06u l=1e+06u
X162 w_20027_5063.t5 vn.t12 a_20223_2963.t5 w_20027_5063# sky130_fd_pr__pfet_01v8_lvt ad=0p pd=0u as=0p ps=0u w=4e+06u l=1e+06u
X163 vss.t84 a_20223_2963.t60 a_21167_3051.t10 vss sky130_fd_pr__nfet_01v8_lvt ad=0p pd=0u as=0p ps=0u w=1e+06u l=1e+06u
X164 vss.t17 a_21167_3051.t79 vout.t28 vss sky130_fd_pr__nfet_01v8_lvt ad=0p pd=0u as=0p ps=0u w=1e+06u l=1e+06u
X165 w_20027_5063.t25 vbias.t99 vdd.t27 vdd sky130_fd_pr__pfet_01v8_lvt ad=0p pd=0u as=0p ps=0u w=2e+06u l=1e+06u
X166 vss.t67 a_20223_2963.t28 a_20223_2963.t29 vss sky130_fd_pr__nfet_01v8_lvt ad=0p pd=0u as=0p ps=0u w=1e+06u l=1e+06u
X167 vout.t84 a_21167_3051.t80 vss.t16 vss sky130_fd_pr__nfet_01v8_lvt ad=0p pd=0u as=0p ps=0u w=1e+06u l=1e+06u
X168 vdd.t26 vbias.t100 w_20027_5063.t24 vdd sky130_fd_pr__pfet_01v8_lvt ad=0p pd=0u as=0p ps=0u w=2e+06u l=1e+06u
X169 vdd.t25 vbias.t101 vout.t45 vdd sky130_fd_pr__pfet_01v8_lvt ad=0p pd=0u as=0p ps=0u w=2e+06u l=1e+06u
X170 vout.t58 vbias.t102 vdd.t24 vdd sky130_fd_pr__pfet_01v8_lvt ad=0p pd=0u as=0p ps=0u w=2e+06u l=1e+06u
X171 vout.t85 a_21167_3051.t81 vss.t15 vss sky130_fd_pr__nfet_01v8_lvt ad=0p pd=0u as=0p ps=0u w=1e+06u l=1e+06u
X172 a_20223_2963.t27 a_20223_2963.t26 vss.t87 vss sky130_fd_pr__nfet_01v8_lvt ad=0p pd=0u as=0p ps=0u w=1e+06u l=1e+06u
X173 vdd.t23 vbias.t34 vbias.t35 vdd sky130_fd_pr__pfet_01v8_lvt ad=0p pd=0u as=0p ps=0u w=2e+06u l=1e+06u
X174 vout.t17 a_21167_3051.t82 vss.t14 vss sky130_fd_pr__nfet_01v8_lvt ad=0p pd=0u as=0p ps=0u w=1e+06u l=1e+06u
X175 vss.t13 a_21167_3051.t83 vout.t18 vss sky130_fd_pr__nfet_01v8_lvt ad=0p pd=0u as=0p ps=0u w=1e+06u l=1e+06u
X176 vdd.t22 vbias.t20 vbias.t21 vdd sky130_fd_pr__pfet_01v8_lvt ad=0p pd=0u as=0p ps=0u w=2e+06u l=1e+06u
X177 a_20223_2963.t3 vn.t13 w_20027_5063.t4 w_20027_5063# sky130_fd_pr__pfet_01v8_lvt ad=0p pd=0u as=0p ps=0u w=4e+06u l=1e+06u
X178 vss.t12 a_21167_3051.t84 vout.t110 vss sky130_fd_pr__nfet_01v8_lvt ad=0p pd=0u as=0p ps=0u w=1e+06u l=1e+06u
X179 vdd.t21 vbias.t103 vout.t46 vdd sky130_fd_pr__pfet_01v8_lvt ad=0p pd=0u as=0p ps=0u w=2e+06u l=1e+06u
X180 w_20027_5063.t23 vbias.t104 vdd.t20 vdd sky130_fd_pr__pfet_01v8_lvt ad=0p pd=0u as=0p ps=0u w=2e+06u l=1e+06u
X181 vdd.t19 vbias.t105 vout.t75 vdd sky130_fd_pr__pfet_01v8_lvt ad=0p pd=0u as=0p ps=0u w=2e+06u l=1e+06u
X182 vdd.t18 vbias.t4 vbias.t5 vdd sky130_fd_pr__pfet_01v8_lvt ad=0p pd=0u as=0p ps=0u w=2e+06u l=1e+06u
X183 w_20027_5063.t3 vn.t14 a_20223_2963.t15 w_20027_5063# sky130_fd_pr__pfet_01v8_lvt ad=0p pd=0u as=0p ps=0u w=4e+06u l=1e+06u
X184 vdd.t17 vbias.t106 vout.t59 vdd sky130_fd_pr__pfet_01v8_lvt ad=0p pd=0u as=0p ps=0u w=2e+06u l=1e+06u
X185 vout.t111 a_21167_3051.t85 vss.t11 vss sky130_fd_pr__nfet_01v8_lvt ad=0p pd=0u as=0p ps=0u w=1e+06u l=1e+06u
X186 vout.t76 vbias.t107 vdd.t16 vdd sky130_fd_pr__pfet_01v8_lvt ad=0p pd=0u as=0p ps=0u w=2e+06u l=1e+06u
X187 a_20223_2963.t25 a_20223_2963.t24 vss.t81 vss sky130_fd_pr__nfet_01v8_lvt ad=0p pd=0u as=0p ps=0u w=1e+06u l=1e+06u
X188 a_20223_2963.t23 a_20223_2963.t22 vss.t74 vss sky130_fd_pr__nfet_01v8_lvt ad=0p pd=0u as=0p ps=0u w=1e+06u l=1e+06u
X189 vdd.t15 vbias.t108 vout.t62 vdd sky130_fd_pr__pfet_01v8_lvt ad=0p pd=0u as=0p ps=0u w=2e+06u l=1e+06u
X190 vss.t10 a_21167_3051.t86 vout.t13 vss sky130_fd_pr__nfet_01v8_lvt ad=0p pd=0u as=0p ps=0u w=1e+06u l=1e+06u
X191 vdd.t14 vbias.t109 w_20027_5063.t22 vdd sky130_fd_pr__pfet_01v8_lvt ad=0p pd=0u as=0p ps=0u w=2e+06u l=1e+06u
X192 a_21167_3051.t27 vp.t12 w_20027_5063.t52 w_20027_5063# sky130_fd_pr__pfet_01v8_lvt ad=0p pd=0u as=0p ps=0u w=4e+06u l=1e+06u
X193 vss.t9 a_21167_3051.t87 vout.t14 vss sky130_fd_pr__nfet_01v8_lvt ad=0p pd=0u as=0p ps=0u w=1e+06u l=1e+06u
X194 vss.t8 a_21167_3051.t88 vout.t15 vss sky130_fd_pr__nfet_01v8_lvt ad=0p pd=0u as=0p ps=0u w=1e+06u l=1e+06u
X195 vss.t7 a_21167_3051.t89 vout.t16 vss sky130_fd_pr__nfet_01v8_lvt ad=0p pd=0u as=0p ps=0u w=1e+06u l=1e+06u
X196 w_20027_5063.t21 vbias.t110 vdd.t13 vdd sky130_fd_pr__pfet_01v8_lvt ad=0p pd=0u as=0p ps=0u w=2e+06u l=1e+06u
X197 w_20027_5063.t2 vn.t15 a_20223_2963.t4 w_20027_5063# sky130_fd_pr__pfet_01v8_lvt ad=0p pd=0u as=0p ps=0u w=4e+06u l=1e+06u
X198 vbias.t43 vbias.t42 vdd.t12 vdd sky130_fd_pr__pfet_01v8_lvt ad=0p pd=0u as=0p ps=0u w=2e+06u l=1e+06u
X199 vout.t112 a_21167_3051.t90 vss.t6 vss sky130_fd_pr__nfet_01v8_lvt ad=0p pd=0u as=0p ps=0u w=1e+06u l=1e+06u
X200 vss.t71 a_20223_2963.t20 a_20223_2963.t21 vss sky130_fd_pr__nfet_01v8_lvt ad=0p pd=0u as=0p ps=0u w=1e+06u l=1e+06u
X201 vdd.t11 vbias.t111 w_20027_5063.t20 vdd sky130_fd_pr__pfet_01v8_lvt ad=0p pd=0u as=0p ps=0u w=2e+06u l=1e+06u
X202 a_21167_3051.t1 vp.t13 w_20027_5063.t1 w_20027_5063# sky130_fd_pr__pfet_01v8_lvt ad=0p pd=0u as=0p ps=0u w=4e+06u l=1e+06u
X203 w_20027_5063.t43 vp.t14 a_21167_3051.t16 w_20027_5063# sky130_fd_pr__pfet_01v8_lvt ad=0p pd=0u as=0p ps=0u w=4e+06u l=1e+06u
X204 vout.t64 vbias.t112 vdd.t10 vdd sky130_fd_pr__pfet_01v8_lvt ad=0p pd=0u as=0p ps=0u w=2e+06u l=1e+06u
X205 vout.t82 vbias.t113 vdd.t9 vdd sky130_fd_pr__pfet_01v8_lvt ad=0p pd=0u as=0p ps=0u w=2e+06u l=1e+06u
X206 a_20223_2963.t19 a_20223_2963.t18 vss.t90 vss sky130_fd_pr__nfet_01v8_lvt ad=0p pd=0u as=0p ps=0u w=1e+06u l=1e+06u
X207 vss.t65 a_20223_2963.t61 a_21167_3051.t3 vss sky130_fd_pr__nfet_01v8_lvt ad=0p pd=0u as=0p ps=0u w=1e+06u l=1e+06u
X208 vbias.t37 vbias.t36 vdd.t8 vdd sky130_fd_pr__pfet_01v8_lvt ad=0p pd=0u as=0p ps=0u w=2e+06u l=1e+06u
X209 vss.t5 a_21167_3051.t91 vout.t113 vss sky130_fd_pr__nfet_01v8_lvt ad=0p pd=0u as=0p ps=0u w=1e+06u l=1e+06u
X210 vout.t0 a_21167_3051.t92 vss.t4 vss sky130_fd_pr__nfet_01v8_lvt ad=0p pd=0u as=0p ps=0u w=1e+06u l=1e+06u
X211 a_21167_3051.t24 a_20223_2963.t62 vss.t92 vss sky130_fd_pr__nfet_01v8_lvt ad=0p pd=0u as=0p ps=0u w=1e+06u l=1e+06u
X212 vdd.t7 vbias.t114 vout.t77 vdd sky130_fd_pr__pfet_01v8_lvt ad=0p pd=0u as=0p ps=0u w=2e+06u l=1e+06u
X213 vout.t1 a_21167_3051.t93 vss.t3 vss sky130_fd_pr__nfet_01v8_lvt ad=0p pd=0u as=0p ps=0u w=1e+06u l=1e+06u
X214 vss.t2 a_21167_3051.t94 vout.t5 vss sky130_fd_pr__nfet_01v8_lvt ad=0p pd=0u as=0p ps=0u w=1e+06u l=1e+06u
X215 vss.t1 a_21167_3051.t95 vout.t6 vss sky130_fd_pr__nfet_01v8_lvt ad=0p pd=0u as=0p ps=0u w=1e+06u l=1e+06u
X216 vout.t78 vbias.t115 vdd.t6 vdd sky130_fd_pr__pfet_01v8_lvt ad=0p pd=0u as=0p ps=0u w=2e+06u l=1e+06u
X217 vdd.t5 vbias.t116 w_20027_5063.t19 vdd sky130_fd_pr__pfet_01v8_lvt ad=0p pd=0u as=0p ps=0u w=2e+06u l=1e+06u
X218 vbias.t1 vbias.t0 vdd.t4 vdd sky130_fd_pr__pfet_01v8_lvt ad=0p pd=0u as=0p ps=0u w=2e+06u l=1e+06u
X219 vdd.t3 vbias.t38 vbias.t39 vdd sky130_fd_pr__pfet_01v8_lvt ad=0p pd=0u as=0p ps=0u w=2e+06u l=1e+06u
X220 vdd.t2 vbias.t117 vout.t65 vdd sky130_fd_pr__pfet_01v8_lvt ad=0p pd=0u as=0p ps=0u w=2e+06u l=1e+06u
X221 w_20027_5063.t51 vp.t15 a_21167_3051.t26 w_20027_5063# sky130_fd_pr__pfet_01v8_lvt ad=0p pd=0u as=0p ps=0u w=4e+06u l=1e+06u
X222 vout.t33 a_21167_3051.t96 vss.t0 vss sky130_fd_pr__nfet_01v8_lvt ad=0p pd=0u as=0p ps=0u w=1e+06u l=1e+06u
X223 vdd.t1 vbias.t118 w_20027_5063.t18 vdd sky130_fd_pr__pfet_01v8_lvt ad=0p pd=0u as=0p ps=0u w=2e+06u l=1e+06u
X224 a_21167_3051.t5 a_20223_2963.t63 vss.t68 vss sky130_fd_pr__nfet_01v8_lvt ad=0p pd=0u as=0p ps=0u w=1e+06u l=1e+06u
X225 vdd.t0 vbias.t119 vout.t83 vdd sky130_fd_pr__pfet_01v8_lvt ad=0p pd=0u as=0p ps=0u w=2e+06u l=1e+06u
X226 a_20223_2963.t17 a_20223_2963.t16 vss.t86 vss sky130_fd_pr__nfet_01v8_lvt ad=0p pd=0u as=0p ps=0u w=1e+06u l=1e+06u
C0 a_23819_6897# vout 80.16fF
C1 vdd vbias 34.89fF
C2 vdd vout 13.17fF
C3 vbias vout 9.70fF
C4 vn vp 1.91fF
R0 vbias.n128 vbias.t8 63.632
R1 vbias.n195 vbias.t20 63.63
R2 vbias.n87 vbias.t2 63.63
R3 vbias.n194 vbias.t75 63.63
R4 vbias.n19 vbias.t97 63.63
R5 vbias.n105 vbias.t74 63.63
R6 vbias.n105 vbias.t59 63.63
R7 vbias.n20 vbias.t68 63.63
R8 vbias.n106 vbias.t117 63.63
R9 vbias.n106 vbias.t84 63.63
R10 vbias.n18 vbias.t103 63.63
R11 vbias.n104 vbias.t79 63.63
R12 vbias.n104 vbias.t106 63.63
R13 vbias.n21 vbias.t85 63.63
R14 vbias.n107 vbias.t63 63.63
R15 vbias.n107 vbias.t52 63.63
R16 vbias.n23 vbias.t96 63.63
R17 vbias.n109 vbias.t73 63.63
R18 vbias.n109 vbias.t76 63.63
R19 vbias.n24 vbias.t114 63.63
R20 vbias.n110 vbias.t91 63.63
R21 vbias.n110 vbias.t48 63.63
R22 vbias.n22 vbias.t53 63.63
R23 vbias.n108 vbias.t105 63.63
R24 vbias.n108 vbias.t51 63.63
R25 vbias.n25 vbias.t66 63.63
R26 vbias.n111 vbias.t115 63.63
R27 vbias.n111 vbias.t65 63.63
R28 vbias.n27 vbias.t77 63.63
R29 vbias.n113 vbias.t55 63.63
R30 vbias.n113 vbias.t88 63.63
R31 vbias.n28 vbias.t95 63.63
R32 vbias.n114 vbias.t72 63.63
R33 vbias.n114 vbias.t58 63.63
R34 vbias.n26 vbias.t82 63.63
R35 vbias.n112 vbias.t60 63.63
R36 vbias.n112 vbias.t108 63.63
R37 vbias.n29 vbias.t112 63.63
R38 vbias.n115 vbias.t90 63.63
R39 vbias.n115 vbias.t102 63.63
R40 vbias.n31 vbias.t107 63.63
R41 vbias.n117 vbias.t83 63.63
R42 vbias.n117 vbias.t70 63.63
R43 vbias.n32 vbias.t69 63.63
R44 vbias.n118 vbias.t119 63.63
R45 vbias.n118 vbias.t94 63.63
R46 vbias.n30 vbias.t89 63.63
R47 vbias.n116 vbias.t67 63.63
R48 vbias.n116 vbias.t101 63.63
R49 vbias.n63 vbias.t104 63.63
R50 vbias.n126 vbias.t80 63.63
R51 vbias.n126 vbias.t49 63.63
R52 vbias.n159 vbias.t46 63.63
R53 vbias.n159 vbias.t18 63.63
R54 vbias.n77 vbias.t0 63.63
R55 vbias.n64 vbias.t28 63.63
R56 vbias.n103 vbias.t38 63.63
R57 vbias.n62 vbias.t86 63.63
R58 vbias.n125 vbias.t64 63.63
R59 vbias.n125 vbias.t81 63.63
R60 vbias.n33 vbias.t93 63.63
R61 vbias.n119 vbias.t71 63.63
R62 vbias.n119 vbias.t113 63.63
R63 vbias.n123 vbias.t6 63.63
R64 vbias.n35 vbias.t44 63.63
R65 vbias.n123 vbias.t36 63.63
R66 vbias.n78 vbias.t62 63.63
R67 vbias.n161 vbias.t111 63.63
R68 vbias.n161 vbias.t118 63.63
R69 vbias.n83 vbias.t116 63.63
R70 vbias.n188 vbias.t92 63.63
R71 vbias.n188 vbias.t56 63.63
R72 vbias.n189 vbias.t98 63.63
R73 vbias.n190 vbias.t40 63.63
R74 vbias.n192 vbias.t12 63.63
R75 vbias.n192 vbias.t22 63.63
R76 vbias.n85 vbias.t34 63.63
R77 vbias.n190 vbias.t32 63.63
R78 vbias.n163 vbias.t4 63.63
R79 vbias.n80 vbias.t10 63.63
R80 vbias.n82 vbias.t24 63.63
R81 vbias.n186 vbias.t30 63.63
R82 vbias.n163 vbias.t16 63.63
R83 vbias.n186 vbias.t42 63.63
R84 vbias.n79 vbias.t78 63.63
R85 vbias.n162 vbias.t54 63.63
R86 vbias.n162 vbias.t87 63.63
R87 vbias.n90 vbias.t57 63.63
R88 vbias.n193 vbias.t109 63.63
R89 vbias.n193 vbias.t100 63.63
R90 vbias.n194 vbias.t50 63.63
R91 vbias.n189 vbias.t110 63.63
R92 vbias.n84 vbias.t61 63.63
R93 vbias.n91 vbias.t26 63.63
R94 vbias.n89 vbias.t99 63.63
R95 vbias.n195 vbias.t14 63.63
R96 vbias.n0 vbias.t21 14.295
R97 vbias.n9 vbias.t3 14.295
R98 vbias.n156 vbias.t47 14.295
R99 vbias.n156 vbias.t9 14.295
R100 vbias.n132 vbias.t39 14.295
R101 vbias.n132 vbias.t19 14.295
R102 vbias.n74 vbias.t29 14.295
R103 vbias.n74 vbias.t1 14.295
R104 vbias.n134 vbias.t7 14.295
R105 vbias.n53 vbias.t45 14.295
R106 vbias.n56 vbias.t37 14.295
R107 vbias.n101 vbias.t13 14.295
R108 vbias.n101 vbias.t41 14.295
R109 vbias.n94 vbias.t33 14.295
R110 vbias.n94 vbias.t23 14.295
R111 vbias.n17 vbias.t35 14.295
R112 vbias.n17 vbias.t27 14.295
R113 vbias.n183 vbias.t17 14.295
R114 vbias.n183 vbias.t43 14.295
R115 vbias.n173 vbias.t5 14.295
R116 vbias.n173 vbias.t31 14.295
R117 vbias.n171 vbias.t25 14.295
R118 vbias.n171 vbias.t11 14.295
R119 vbias.n3 vbias.t15 14.295
R120 vbias.n196 vbias.n0 3.25
R121 vbias.n196 vbias.n3 1.139
R122 vbias.n3 vbias.n2 0.874
R123 vbias.n10 vbias.n9 0.87
R124 vbias.n53 vbias.n52 0.823
R125 vbias.n150 vbias.n134 0.823
R126 vbias.n54 vbias.n53 0.594
R127 vbias.n57 vbias.n56 0.58
R128 vbias.n13 vbias.n12 0.577
R129 vbias.n37 vbias.n36 0.575