* NGSPICE file created from S_to_D_revised_post.ext - technology: sky130A

.subckt S_to_D_revised_post vdd vbias1 vbias2 vi vref vss vn vp
X0 vp.t64 a_2843_3469.t33 vss.t176 vss sky130_fd_pr__nfet_01v8_lvt ad=0p pd=0u as=0p ps=0u w=1e+06u l=1e+06u
X1 vss.t97 a_1899_8066.t46 a_1899_8066.t47 vss sky130_fd_pr__nfet_01v8_lvt ad=0p pd=0u as=0p ps=0u w=1e+06u l=1e+06u
X2 w_1703_n7563.t55 OTA_revised_1/vn a_1899_n9663.t32 w_1703_n7563# sky130_fd_pr__pfet_01v8_lvt ad=0p pd=0u as=0p ps=0u w=4e+06u l=1e+06u
X3 w_1703_n7563.t54 OTA_revised_1/vn a_1899_n9663.t45 w_1703_n7563# sky130_fd_pr__pfet_01v8_lvt ad=0p pd=0u as=0p ps=0u w=4e+06u l=1e+06u
X4 a_2843_n9575.t21 a_1899_n9663.t48 vss.t84 vss sky130_fd_pr__nfet_01v8_lvt ad=0p pd=0u as=0p ps=0u w=1e+06u l=1e+06u
X5 w_1703_3250.t52 vbias1.t48 vdd.t161 vdd sky130_fd_pr__pfet_01v8_lvt ad=0p pd=0u as=0p ps=0u w=2e+06u l=1e+06u
X6 a_1899_n9663.t31 a_1899_n9663.t30 vss.t101 vss sky130_fd_pr__nfet_01v8_lvt ad=0p pd=0u as=0p ps=0u w=1e+06u l=1e+06u
X7 vp.t63 a_2843_3469.t34 vss.t175 vss sky130_fd_pr__nfet_01v8_lvt ad=0p pd=0u as=0p ps=0u w=1e+06u l=1e+06u
X8 a_1899_n9663.t29 a_1899_n9663.t28 vss.t32 vss sky130_fd_pr__nfet_01v8_lvt ad=0p pd=0u as=0p ps=0u w=1e+06u l=1e+06u
X9 w_1703_n7563.t32 vref.t0 a_2843_n9575.t29 w_1703_n7563# sky130_fd_pr__pfet_01v8_lvt ad=0p pd=0u as=0p ps=0u w=4e+06u l=1e+06u
X10 a_1899_n9663.t46 OTA_revised_1/vn w_1703_n7563.t53 w_1703_n7563# sky130_fd_pr__pfet_01v8_lvt ad=0p pd=0u as=0p ps=0u w=4e+06u l=1e+06u
X11 vss.t81 a_1899_8066.t48 a_2843_3469.t21 vss sky130_fd_pr__nfet_01v8_lvt ad=0p pd=0u as=0p ps=0u w=1e+06u l=1e+06u
X12 vp.t85 vbias1.t49 vdd.t160 vdd sky130_fd_pr__pfet_01v8_lvt ad=0p pd=0u as=0p ps=0u w=2e+06u l=1e+06u
X13 vss.t174 a_2843_3469.t35 vp.t62 vss sky130_fd_pr__nfet_01v8_lvt ad=0p pd=0u as=0p ps=0u w=1e+06u l=1e+06u
X14 vss.t61 a_1899_n9663.t26 a_1899_n9663.t27 vss sky130_fd_pr__nfet_01v8_lvt ad=0p pd=0u as=0p ps=0u w=1e+06u l=1e+06u
X15 vss.t58 a_1899_n9663.t49 a_2843_n9575.t20 vss sky130_fd_pr__nfet_01v8_lvt ad=0p pd=0u as=0p ps=0u w=1e+06u l=1e+06u
X16 vbias2.t47 vbias2.t46 vdd.t64 vdd sky130_fd_pr__pfet_01v8_lvt ad=0p pd=0u as=0p ps=0u w=2e+06u l=1e+06u
X17 vss.t43 a_1899_n9663.t50 a_2843_n9575.t19 vss sky130_fd_pr__nfet_01v8_lvt ad=0p pd=0u as=0p ps=0u w=1e+06u l=1e+06u
X18 w_1703_3250.t51 vbias1.t50 vdd.t159 vdd sky130_fd_pr__pfet_01v8_lvt ad=0p pd=0u as=0p ps=0u w=2e+06u l=1e+06u
X19 vp.t61 a_2843_3469.t36 vss.t173 vss sky130_fd_pr__nfet_01v8_lvt ad=0p pd=0u as=0p ps=0u w=1e+06u l=1e+06u
X20 vn.t113 a_2843_n9575.t33 vss.t4 vss sky130_fd_pr__nfet_01v8_lvt ad=0p pd=0u as=0p ps=0u w=1e+06u l=1e+06u
X21 vp.t86 vbias1.t51 vdd.t158 vdd sky130_fd_pr__pfet_01v8_lvt ad=0p pd=0u as=0p ps=0u w=2e+06u l=1e+06u
X22 vn.t112 a_2843_n9575.t34 vss.t5 vss sky130_fd_pr__nfet_01v8_lvt ad=0p pd=0u as=0p ps=0u w=1e+06u l=1e+06u
X23 vss.t6 a_2843_n9575.t35 vn.t111 vss sky130_fd_pr__nfet_01v8_lvt ad=0p pd=0u as=0p ps=0u w=1e+06u l=1e+06u
X24 vss.t186 a_1899_8066.t44 a_1899_8066.t45 vss sky130_fd_pr__nfet_01v8_lvt ad=0p pd=0u as=0p ps=0u w=1e+06u l=1e+06u
X25 vdd.t157 vbias1.t52 w_1703_3250.t50 vdd sky130_fd_pr__pfet_01v8_lvt ad=0p pd=0u as=0p ps=0u w=2e+06u l=1e+06u
X26 vss.t7 a_2843_n9575.t36 vn.t110 vss sky130_fd_pr__nfet_01v8_lvt ad=0p pd=0u as=0p ps=0u w=1e+06u l=1e+06u
X27 a_2843_n9575.t32 a_7033_n5971# vss sky130_fd_pr__res_xhigh_po w=350000u l=500000u
X28 a_2843_n9575.t2 vref.t1 w_1703_n7563.t13 w_1703_n7563# sky130_fd_pr__pfet_01v8_lvt ad=0p pd=0u as=0p ps=0u w=4e+06u l=1e+06u
X29 vdd.t179 vbias2.t48 vn.t47 vdd sky130_fd_pr__pfet_01v8_lvt ad=0p pd=0u as=0p ps=0u w=2e+06u l=1e+06u
X30 a_1899_8066.t1 vp.t113 w_1703_3250.t16 w_1703_3250# sky130_fd_pr__pfet_01v8_lvt ad=0p pd=0u as=0p ps=0u w=4e+06u l=1e+06u
X31 vp.t60 a_2843_3469.t37 vss.t172 vss sky130_fd_pr__nfet_01v8_lvt ad=0p pd=0u as=0p ps=0u w=1e+06u l=1e+06u
X32 vn.t109 a_2843_n9575.t37 vss.t8 vss sky130_fd_pr__nfet_01v8_lvt ad=0p pd=0u as=0p ps=0u w=1e+06u l=1e+06u
X33 vp.t59 a_2843_3469.t38 vss.t171 vss sky130_fd_pr__nfet_01v8_lvt ad=0p pd=0u as=0p ps=0u w=1e+06u l=1e+06u
X34 vdd.t43 vbias2.t44 vbias2.t45 vdd sky130_fd_pr__pfet_01v8_lvt ad=0p pd=0u as=0p ps=0u w=2e+06u l=1e+06u
X35 vdd.t7 vbias2.t42 vbias2.t43 vdd sky130_fd_pr__pfet_01v8_lvt ad=0p pd=0u as=0p ps=0u w=2e+06u l=1e+06u
X36 vdd.t156 vbias1.t53 vp.t87 vdd sky130_fd_pr__pfet_01v8_lvt ad=0p pd=0u as=0p ps=0u w=2e+06u l=1e+06u
X37 w_1703_3250.t49 vbias1.t54 vdd.t155 vdd sky130_fd_pr__pfet_01v8_lvt ad=0p pd=0u as=0p ps=0u w=2e+06u l=1e+06u
X38 w_1703_3250.t15 vp.t114 a_1899_8066.t2 w_1703_3250# sky130_fd_pr__pfet_01v8_lvt ad=0p pd=0u as=0p ps=0u w=4e+06u l=1e+06u
X39 vbias1.t21 vbias1.t20 vdd.t154 vdd sky130_fd_pr__pfet_01v8_lvt ad=0p pd=0u as=0p ps=0u w=2e+06u l=1e+06u
X40 vp.t58 a_2843_3469.t39 vss.t170 vss sky130_fd_pr__nfet_01v8_lvt ad=0p pd=0u as=0p ps=0u w=1e+06u l=1e+06u
X41 vss.t9 a_2843_n9575.t38 vn.t108 vss sky130_fd_pr__nfet_01v8_lvt ad=0p pd=0u as=0p ps=0u w=1e+06u l=1e+06u
X42 a_2843_n9575.t18 a_1899_n9663.t51 vss.t100 vss sky130_fd_pr__nfet_01v8_lvt ad=0p pd=0u as=0p ps=0u w=1e+06u l=1e+06u
X43 vss.t10 a_2843_n9575.t39 vn.t107 vss sky130_fd_pr__nfet_01v8_lvt ad=0p pd=0u as=0p ps=0u w=1e+06u l=1e+06u
X44 w_1703_n7563.t38 vbias2.t49 vdd.t180 vdd sky130_fd_pr__pfet_01v8_lvt ad=0p pd=0u as=0p ps=0u w=2e+06u l=1e+06u
X45 vdd.t153 vbias1.t55 vp.t78 vdd sky130_fd_pr__pfet_01v8_lvt ad=0p pd=0u as=0p ps=0u w=2e+06u l=1e+06u
X46 vss.t11 a_2843_n9575.t40 vn.t106 vss sky130_fd_pr__nfet_01v8_lvt ad=0p pd=0u as=0p ps=0u w=1e+06u l=1e+06u
X47 vdd.t35 vbias2.t50 vn.t46 vdd sky130_fd_pr__pfet_01v8_lvt ad=0p pd=0u as=0p ps=0u w=2e+06u l=1e+06u
X48 vdd.t14 vbias2.t40 vbias2.t41 vdd sky130_fd_pr__pfet_01v8_lvt ad=0p pd=0u as=0p ps=0u w=2e+06u l=1e+06u
X49 vp.t79 vbias1.t56 vdd.t152 vdd sky130_fd_pr__pfet_01v8_lvt ad=0p pd=0u as=0p ps=0u w=2e+06u l=1e+06u
X50 vss.t65 a_1899_8066.t49 a_2843_3469.t10 vss sky130_fd_pr__nfet_01v8_lvt ad=0p pd=0u as=0p ps=0u w=1e+06u l=1e+06u
X51 vss.t12 a_2843_n9575.t41 vn.t105 vss sky130_fd_pr__nfet_01v8_lvt ad=0p pd=0u as=0p ps=0u w=1e+06u l=1e+06u
X52 vdd.t36 vbias2.t51 w_1703_n7563.t18 vdd sky130_fd_pr__pfet_01v8_lvt ad=0p pd=0u as=0p ps=0u w=2e+06u l=1e+06u
X53 vbias1.t5 vbias1.t4 vdd.t151 vdd sky130_fd_pr__pfet_01v8_lvt ad=0p pd=0u as=0p ps=0u w=2e+06u l=1e+06u
X54 w_1703_3250.t28 vi.t1 a_2843_3469.t29 w_1703_3250# sky130_fd_pr__pfet_01v8_lvt ad=0p pd=0u as=0p ps=0u w=4e+06u l=1e+06u
X55 a_1899_8066.t43 a_1899_8066.t42 vss.t64 vss sky130_fd_pr__nfet_01v8_lvt ad=0p pd=0u as=0p ps=0u w=1e+06u l=1e+06u
X56 w_1703_n7563.t6 vbias2.t52 vdd.t10 vdd sky130_fd_pr__pfet_01v8_lvt ad=0p pd=0u as=0p ps=0u w=2e+06u l=1e+06u
X57 vdd.t150 vbias1.t57 vp.t80 vdd sky130_fd_pr__pfet_01v8_lvt ad=0p pd=0u as=0p ps=0u w=2e+06u l=1e+06u
X58 a_5739_n5680.t1 vn.t49 vss sky130_fd_pr__res_xhigh_po w=350000u l=5e+06u
X59 vp.t81 vbias1.t58 vdd.t149 vdd sky130_fd_pr__pfet_01v8_lvt ad=0p pd=0u as=0p ps=0u w=2e+06u l=1e+06u
X60 vp.t57 a_2843_3469.t40 vss.t169 vss sky130_fd_pr__nfet_01v8_lvt ad=0p pd=0u as=0p ps=0u w=1e+06u l=1e+06u
X61 vn.t104 a_2843_n9575.t42 vss.t47 vss sky130_fd_pr__nfet_01v8_lvt ad=0p pd=0u as=0p ps=0u w=1e+06u l=1e+06u
X62 w_1703_3250.t14 vp.t115 a_1899_8066.t3 w_1703_3250# sky130_fd_pr__pfet_01v8_lvt ad=0p pd=0u as=0p ps=0u w=4e+06u l=1e+06u
X63 vdd.t11 vbias2.t53 w_1703_n7563.t7 vdd sky130_fd_pr__pfet_01v8_lvt ad=0p pd=0u as=0p ps=0u w=2e+06u l=1e+06u
X64 vp.t56 a_2843_3469.t41 vss.t168 vss sky130_fd_pr__nfet_01v8_lvt ad=0p pd=0u as=0p ps=0u w=1e+06u l=1e+06u
X65 vp.t82 vbias1.t59 vdd.t148 vdd sky130_fd_pr__pfet_01v8_lvt ad=0p pd=0u as=0p ps=0u w=2e+06u l=1e+06u
X66 a_2843_3469.t11 a_1899_8066.t50 vss.t66 vss sky130_fd_pr__nfet_01v8_lvt ad=0p pd=0u as=0p ps=0u w=1e+06u l=1e+06u
X67 a_2843_n9575.t1 vref.t2 w_1703_n7563.t3 w_1703_n7563# sky130_fd_pr__pfet_01v8_lvt ad=0p pd=0u as=0p ps=0u w=4e+06u l=1e+06u
X68 vdd.t147 vbias1.t60 vp.t83 vdd sky130_fd_pr__pfet_01v8_lvt ad=0p pd=0u as=0p ps=0u w=2e+06u l=1e+06u
X69 vdd.t146 vbias1.t61 vp.t84 vdd sky130_fd_pr__pfet_01v8_lvt ad=0p pd=0u as=0p ps=0u w=2e+06u l=1e+06u
X70 vn.t103 a_2843_n9575.t43 vss.t48 vss sky130_fd_pr__nfet_01v8_lvt ad=0p pd=0u as=0p ps=0u w=1e+06u l=1e+06u
X71 vn.t102 a_2843_n9575.t44 vss.t49 vss sky130_fd_pr__nfet_01v8_lvt ad=0p pd=0u as=0p ps=0u w=1e+06u l=1e+06u
X72 vdd.t8 vbias2.t54 vn.t45 vdd sky130_fd_pr__pfet_01v8_lvt ad=0p pd=0u as=0p ps=0u w=2e+06u l=1e+06u
X73 a_2843_3469.t19 a_1899_8066.t51 vss.t73 vss sky130_fd_pr__nfet_01v8_lvt ad=0p pd=0u as=0p ps=0u w=1e+06u l=1e+06u
X74 w_1703_n7563.t52 OTA_revised_1/vn a_1899_n9663.t41 w_1703_n7563# sky130_fd_pr__pfet_01v8_lvt ad=0p pd=0u as=0p ps=0u w=4e+06u l=1e+06u
X75 w_1703_3250.t48 vbias1.t62 vdd.t145 vdd sky130_fd_pr__pfet_01v8_lvt ad=0p pd=0u as=0p ps=0u w=2e+06u l=1e+06u
X76 vss.t103 a_2843_n9575.t45 vn.t101 vss sky130_fd_pr__nfet_01v8_lvt ad=0p pd=0u as=0p ps=0u w=1e+06u l=1e+06u
X77 vdd.t9 vbias2.t55 vn.t44 vdd sky130_fd_pr__pfet_01v8_lvt ad=0p pd=0u as=0p ps=0u w=2e+06u l=1e+06u
X78 vdd.t144 vbias1.t63 w_1703_3250.t47 vdd sky130_fd_pr__pfet_01v8_lvt ad=0p pd=0u as=0p ps=0u w=2e+06u l=1e+06u
X79 vdd.t185 vbias2.t56 vn.t43 vdd sky130_fd_pr__pfet_01v8_lvt ad=0p pd=0u as=0p ps=0u w=2e+06u l=1e+06u
X80 a_2843_n9575.t17 a_1899_n9663.t52 vss.t83 vss sky130_fd_pr__nfet_01v8_lvt ad=0p pd=0u as=0p ps=0u w=1e+06u l=1e+06u
X81 vp.t96 vbias1.t64 vdd.t143 vdd sky130_fd_pr__pfet_01v8_lvt ad=0p pd=0u as=0p ps=0u w=2e+06u l=1e+06u
X82 a_2843_n9575.t16 a_1899_n9663.t53 vss.t99 vss sky130_fd_pr__nfet_01v8_lvt ad=0p pd=0u as=0p ps=0u w=1e+06u l=1e+06u
X83 a_7033_n5971# vn sky130_fd_pr__cap_mim_m3_1 l=1.4e+07u w=1.4e+07u
X84 vp.t97 vbias1.t65 vdd.t142 vdd sky130_fd_pr__pfet_01v8_lvt ad=0p pd=0u as=0p ps=0u w=2e+06u l=1e+06u
X85 w_1703_3250.t54 vi.t2 a_2843_3469.t31 w_1703_3250# sky130_fd_pr__pfet_01v8_lvt ad=0p pd=0u as=0p ps=0u w=4e+06u l=1e+06u
X86 w_1703_3250.t46 vbias1.t66 vdd.t141 vdd sky130_fd_pr__pfet_01v8_lvt ad=0p pd=0u as=0p ps=0u w=2e+06u l=1e+06u
X87 vp.t55 a_2843_3469.t42 vss.t167 vss sky130_fd_pr__nfet_01v8_lvt ad=0p pd=0u as=0p ps=0u w=1e+06u l=1e+06u
X88 vn.t42 vbias2.t57 vdd.t186 vdd sky130_fd_pr__pfet_01v8_lvt ad=0p pd=0u as=0p ps=0u w=2e+06u l=1e+06u
X89 vss.t13 a_1899_n9663.t24 a_1899_n9663.t25 vss sky130_fd_pr__nfet_01v8_lvt ad=0p pd=0u as=0p ps=0u w=1e+06u l=1e+06u
X90 a_1899_n9663.t42 OTA_revised_1/vn w_1703_n7563.t51 w_1703_n7563# sky130_fd_pr__pfet_01v8_lvt ad=0p pd=0u as=0p ps=0u w=4e+06u l=1e+06u
X91 vn.t41 vbias2.t58 vdd.t39 vdd sky130_fd_pr__pfet_01v8_lvt ad=0p pd=0u as=0p ps=0u w=2e+06u l=1e+06u
X92 vss.t45 a_1899_n9663.t22 a_1899_n9663.t23 vss sky130_fd_pr__nfet_01v8_lvt ad=0p pd=0u as=0p ps=0u w=1e+06u l=1e+06u
X93 vdd.t140 vbias1.t67 w_1703_3250.t45 vdd sky130_fd_pr__pfet_01v8_lvt ad=0p pd=0u as=0p ps=0u w=2e+06u l=1e+06u
X94 a_1899_8066.t4 vp.t116 w_1703_3250.t13 w_1703_3250# sky130_fd_pr__pfet_01v8_lvt ad=0p pd=0u as=0p ps=0u w=4e+06u l=1e+06u
X95 vp.t54 a_2843_3469.t43 vss.t166 vss sky130_fd_pr__nfet_01v8_lvt ad=0p pd=0u as=0p ps=0u w=1e+06u l=1e+06u
X96 vp.t98 vbias1.t68 vdd.t139 vdd sky130_fd_pr__pfet_01v8_lvt ad=0p pd=0u as=0p ps=0u w=2e+06u l=1e+06u
X97 vp.t99 vbias1.t69 vdd.t138 vdd sky130_fd_pr__pfet_01v8_lvt ad=0p pd=0u as=0p ps=0u w=2e+06u l=1e+06u
X98 w_1703_3250.t12 vp.t117 a_1899_8066.t5 w_1703_3250# sky130_fd_pr__pfet_01v8_lvt ad=0p pd=0u as=0p ps=0u w=4e+06u l=1e+06u
X99 w_1703_n7563.t30 vref.t3 a_2843_n9575.t28 w_1703_n7563# sky130_fd_pr__pfet_01v8_lvt ad=0p pd=0u as=0p ps=0u w=4e+06u l=1e+06u
X100 a_2843_3469.t20 a_1899_8066.t52 vss.t74 vss sky130_fd_pr__nfet_01v8_lvt ad=0p pd=0u as=0p ps=0u w=1e+06u l=1e+06u
X101 vn.t40 vbias2.t59 vdd.t40 vdd sky130_fd_pr__pfet_01v8_lvt ad=0p pd=0u as=0p ps=0u w=2e+06u l=1e+06u
X102 w_1703_n7563.t50 OTA_revised_1/vn a_1899_n9663.t43 w_1703_n7563# sky130_fd_pr__pfet_01v8_lvt ad=0p pd=0u as=0p ps=0u w=4e+06u l=1e+06u
X103 vss.t104 a_2843_n9575.t46 vn.t100 vss sky130_fd_pr__nfet_01v8_lvt ad=0p pd=0u as=0p ps=0u w=1e+06u l=1e+06u
X104 vn.t39 vbias2.t60 vdd.t62 vdd sky130_fd_pr__pfet_01v8_lvt ad=0p pd=0u as=0p ps=0u w=2e+06u l=1e+06u
X105 vss.t105 a_2843_n9575.t47 vn.t99 vss sky130_fd_pr__nfet_01v8_lvt ad=0p pd=0u as=0p ps=0u w=1e+06u l=1e+06u
X106 a_2843_n9575.t5 vref.t4 w_1703_n7563.t16 w_1703_n7563# sky130_fd_pr__pfet_01v8_lvt ad=0p pd=0u as=0p ps=0u w=4e+06u l=1e+06u
X107 vbias1.t19 vbias1.t18 vdd.t137 vdd sky130_fd_pr__pfet_01v8_lvt ad=0p pd=0u as=0p ps=0u w=2e+06u l=1e+06u
X108 vdd.t136 vbias1.t70 vp.t100 vdd sky130_fd_pr__pfet_01v8_lvt ad=0p pd=0u as=0p ps=0u w=2e+06u l=1e+06u
X109 a_1899_n9663.t33 OTA_revised_1/vn w_1703_n7563.t49 w_1703_n7563# sky130_fd_pr__pfet_01v8_lvt ad=0p pd=0u as=0p ps=0u w=4e+06u l=1e+06u
X110 vbias1.t9 vbias1.t8 vdd.t135 vdd sky130_fd_pr__pfet_01v8_lvt ad=0p pd=0u as=0p ps=0u w=2e+06u l=1e+06u
X111 vn.t98 a_2843_n9575.t48 vss.t0 vss sky130_fd_pr__nfet_01v8_lvt ad=0p pd=0u as=0p ps=0u w=1e+06u l=1e+06u
X112 vss.t88 a_1899_n9663.t20 a_1899_n9663.t21 vss sky130_fd_pr__nfet_01v8_lvt ad=0p pd=0u as=0p ps=0u w=1e+06u l=1e+06u
X113 vdd.t63 vbias2.t61 w_1703_n7563.t31 vdd sky130_fd_pr__pfet_01v8_lvt ad=0p pd=0u as=0p ps=0u w=2e+06u l=1e+06u
X114 vp.t101 vbias1.t71 vdd.t134 vdd sky130_fd_pr__pfet_01v8_lvt ad=0p pd=0u as=0p ps=0u w=2e+06u l=1e+06u
X115 a_7033_5572# vp sky130_fd_pr__cap_mim_m3_1 l=1.4e+07u w=1.4e+07u
X116 vn.t97 a_2843_n9575.t49 vss.t1 vss sky130_fd_pr__nfet_01v8_lvt ad=0p pd=0u as=0p ps=0u w=1e+06u l=1e+06u
X117 w_1703_3250.t0 vi.t3 a_2843_3469.t0 w_1703_3250# sky130_fd_pr__pfet_01v8_lvt ad=0p pd=0u as=0p ps=0u w=4e+06u l=1e+06u
X118 vss.t2 a_2843_n9575.t50 vn.t96 vss sky130_fd_pr__nfet_01v8_lvt ad=0p pd=0u as=0p ps=0u w=1e+06u l=1e+06u
X119 vdd.t133 vbias1.t6 vbias1.t7 vdd sky130_fd_pr__pfet_01v8_lvt ad=0p pd=0u as=0p ps=0u w=2e+06u l=1e+06u
X120 vss.t165 a_2843_3469.t44 vp.t53 vss sky130_fd_pr__nfet_01v8_lvt ad=0p pd=0u as=0p ps=0u w=1e+06u l=1e+06u
X121 a_1899_n9663.t19 a_1899_n9663.t18 vss.t177 vss sky130_fd_pr__nfet_01v8_lvt ad=0p pd=0u as=0p ps=0u w=1e+06u l=1e+06u
X122 vss.t29 a_2843_n9575.t51 vn.t95 vss sky130_fd_pr__nfet_01v8_lvt ad=0p pd=0u as=0p ps=0u w=1e+06u l=1e+06u
X123 vbias2.t39 vbias2.t38 vdd.t172 vdd sky130_fd_pr__pfet_01v8_lvt ad=0p pd=0u as=0p ps=0u w=2e+06u l=1e+06u
X124 vdd.t32 vbias2.t36 vbias2.t37 vdd sky130_fd_pr__pfet_01v8_lvt ad=0p pd=0u as=0p ps=0u w=2e+06u l=1e+06u
X125 a_2843_n9575.t15 a_1899_n9663.t54 vss.t98 vss sky130_fd_pr__nfet_01v8_lvt ad=0p pd=0u as=0p ps=0u w=1e+06u l=1e+06u
X126 vss.t30 a_2843_n9575.t52 vn.t94 vss sky130_fd_pr__nfet_01v8_lvt ad=0p pd=0u as=0p ps=0u w=1e+06u l=1e+06u
X127 a_2843_n9575.t14 a_1899_n9663.t55 vss.t82 vss sky130_fd_pr__nfet_01v8_lvt ad=0p pd=0u as=0p ps=0u w=1e+06u l=1e+06u
X128 vdd.t23 vbias2.t62 w_1703_n7563.t11 vdd sky130_fd_pr__pfet_01v8_lvt ad=0p pd=0u as=0p ps=0u w=2e+06u l=1e+06u
X129 vp.t107 vbias1.t72 vdd.t132 vdd sky130_fd_pr__pfet_01v8_lvt ad=0p pd=0u as=0p ps=0u w=2e+06u l=1e+06u
X130 vbias1.t33 vbias1.t32 vdd.t131 vdd sky130_fd_pr__pfet_01v8_lvt ad=0p pd=0u as=0p ps=0u w=2e+06u l=1e+06u
X131 vdd.t24 vbias2.t63 w_1703_n7563.t12 vdd sky130_fd_pr__pfet_01v8_lvt ad=0p pd=0u as=0p ps=0u w=2e+06u l=1e+06u
X132 a_2843_3469.t6 a_1899_8066.t53 vss.t37 vss sky130_fd_pr__nfet_01v8_lvt ad=0p pd=0u as=0p ps=0u w=1e+06u l=1e+06u
X133 vss.t164 a_2843_3469.t45 vp.t52 vss sky130_fd_pr__nfet_01v8_lvt ad=0p pd=0u as=0p ps=0u w=1e+06u l=1e+06u
X134 vn.t93 a_2843_n9575.t53 vss.t31 vss sky130_fd_pr__nfet_01v8_lvt ad=0p pd=0u as=0p ps=0u w=1e+06u l=1e+06u
X135 vss.t14 a_2843_n9575.t54 vn.t92 vss sky130_fd_pr__nfet_01v8_lvt ad=0p pd=0u as=0p ps=0u w=1e+06u l=1e+06u
X136 vdd.t130 vbias1.t16 vbias1.t17 vdd sky130_fd_pr__pfet_01v8_lvt ad=0p pd=0u as=0p ps=0u w=2e+06u l=1e+06u
X137 vss.t163 a_2843_3469.t46 vp.t51 vss sky130_fd_pr__nfet_01v8_lvt ad=0p pd=0u as=0p ps=0u w=1e+06u l=1e+06u
X138 vss.t15 a_2843_n9575.t55 vn.t91 vss sky130_fd_pr__nfet_01v8_lvt ad=0p pd=0u as=0p ps=0u w=1e+06u l=1e+06u
X139 vbias2.t35 vbias2.t34 vdd.t56 vdd sky130_fd_pr__pfet_01v8_lvt ad=0p pd=0u as=0p ps=0u w=2e+06u l=1e+06u
X140 vbias2.t33 vbias2.t32 vdd.t2 vdd sky130_fd_pr__pfet_01v8_lvt ad=0p pd=0u as=0p ps=0u w=2e+06u l=1e+06u
X141 vbias2.t31 vbias2.t30 vdd.t187 vdd sky130_fd_pr__pfet_01v8_lvt ad=0p pd=0u as=0p ps=0u w=2e+06u l=1e+06u
X142 vp.t108 vbias1.t73 vdd.t129 vdd sky130_fd_pr__pfet_01v8_lvt ad=0p pd=0u as=0p ps=0u w=2e+06u l=1e+06u
X143 a_2843_3469.t28 vi.t4 w_1703_3250.t27 w_1703_3250# sky130_fd_pr__pfet_01v8_lvt ad=0p pd=0u as=0p ps=0u w=4e+06u l=1e+06u
X144 vss.t162 a_2843_3469.t47 vp.t50 vss sky130_fd_pr__nfet_01v8_lvt ad=0p pd=0u as=0p ps=0u w=1e+06u l=1e+06u
X145 vn.t90 a_2843_n9575.t56 vss.t16 vss sky130_fd_pr__nfet_01v8_lvt ad=0p pd=0u as=0p ps=0u w=1e+06u l=1e+06u
X146 vn.t89 a_2843_n9575.t57 vss.t91 vss sky130_fd_pr__nfet_01v8_lvt ad=0p pd=0u as=0p ps=0u w=1e+06u l=1e+06u
X147 a_1899_8066.t41 a_1899_8066.t40 vss.t3 vss sky130_fd_pr__nfet_01v8_lvt ad=0p pd=0u as=0p ps=0u w=1e+06u l=1e+06u
X148 w_1703_n7563.t23 vbias2.t64 vdd.t54 vdd sky130_fd_pr__pfet_01v8_lvt ad=0p pd=0u as=0p ps=0u w=2e+06u l=1e+06u
X149 vn.t88 a_2843_n9575.t58 vss.t92 vss sky130_fd_pr__nfet_01v8_lvt ad=0p pd=0u as=0p ps=0u w=1e+06u l=1e+06u
X150 vn.t38 vbias2.t65 vdd.t55 vdd sky130_fd_pr__pfet_01v8_lvt ad=0p pd=0u as=0p ps=0u w=2e+06u l=1e+06u
X151 vbias2.t29 vbias2.t28 vdd.t165 vdd sky130_fd_pr__pfet_01v8_lvt ad=0p pd=0u as=0p ps=0u w=2e+06u l=1e+06u
X152 vss.t42 a_1899_8066.t38 a_1899_8066.t39 vss sky130_fd_pr__nfet_01v8_lvt ad=0p pd=0u as=0p ps=0u w=1e+06u l=1e+06u
X153 vp.t109 vbias1.t74 vdd.t128 vdd sky130_fd_pr__pfet_01v8_lvt ad=0p pd=0u as=0p ps=0u w=2e+06u l=1e+06u
X154 a_1899_8066.t37 a_1899_8066.t36 vss.t71 vss sky130_fd_pr__nfet_01v8_lvt ad=0p pd=0u as=0p ps=0u w=1e+06u l=1e+06u
X155 vn.t87 a_2843_n9575.t59 vss.t93 vss sky130_fd_pr__nfet_01v8_lvt ad=0p pd=0u as=0p ps=0u w=1e+06u l=1e+06u
X156 vdd.t177 vbias2.t66 vn.t37 vdd sky130_fd_pr__pfet_01v8_lvt ad=0p pd=0u as=0p ps=0u w=2e+06u l=1e+06u
X157 vdd.t57 vbias2.t26 vbias2.t27 vdd sky130_fd_pr__pfet_01v8_lvt ad=0p pd=0u as=0p ps=0u w=2e+06u l=1e+06u
X158 vss.t161 a_2843_3469.t48 vp.t49 vss sky130_fd_pr__nfet_01v8_lvt ad=0p pd=0u as=0p ps=0u w=1e+06u l=1e+06u
X159 vn.t86 a_2843_n9575.t60 vss.t17 vss sky130_fd_pr__nfet_01v8_lvt ad=0p pd=0u as=0p ps=0u w=1e+06u l=1e+06u
X160 w_1703_n7563.t37 vbias2.t67 vdd.t178 vdd sky130_fd_pr__pfet_01v8_lvt ad=0p pd=0u as=0p ps=0u w=2e+06u l=1e+06u
X161 vn.t36 vbias2.t68 vdd.t190 vdd sky130_fd_pr__pfet_01v8_lvt ad=0p pd=0u as=0p ps=0u w=2e+06u l=1e+06u
X162 w_1703_3250.t53 vi.t5 a_2843_3469.t30 w_1703_3250# sky130_fd_pr__pfet_01v8_lvt ad=0p pd=0u as=0p ps=0u w=4e+06u l=1e+06u
X163 vss.t160 a_2843_3469.t49 vp.t48 vss sky130_fd_pr__nfet_01v8_lvt ad=0p pd=0u as=0p ps=0u w=1e+06u l=1e+06u
X164 vss.t39 a_1899_8066.t34 a_1899_8066.t35 vss sky130_fd_pr__nfet_01v8_lvt ad=0p pd=0u as=0p ps=0u w=1e+06u l=1e+06u
X165 vn.t35 vbias2.t69 vdd.t191 vdd sky130_fd_pr__pfet_01v8_lvt ad=0p pd=0u as=0p ps=0u w=2e+06u l=1e+06u
X166 vdd.t127 vbias1.t75 w_1703_3250.t44 vdd sky130_fd_pr__pfet_01v8_lvt ad=0p pd=0u as=0p ps=0u w=2e+06u l=1e+06u
X167 a_1899_8066.t6 vp.t118 w_1703_3250.t11 w_1703_3250# sky130_fd_pr__pfet_01v8_lvt ad=0p pd=0u as=0p ps=0u w=4e+06u l=1e+06u
X168 vss.t159 a_2843_3469.t50 vp.t47 vss sky130_fd_pr__nfet_01v8_lvt ad=0p pd=0u as=0p ps=0u w=1e+06u l=1e+06u
X169 w_1703_n7563.t10 vbias2.t70 vdd.t21 vdd sky130_fd_pr__pfet_01v8_lvt ad=0p pd=0u as=0p ps=0u w=2e+06u l=1e+06u
X170 vdd.t22 vbias2.t71 vn.t34 vdd sky130_fd_pr__pfet_01v8_lvt ad=0p pd=0u as=0p ps=0u w=2e+06u l=1e+06u
X171 vbias1.t31 vbias1.t30 vdd.t126 vdd sky130_fd_pr__pfet_01v8_lvt ad=0p pd=0u as=0p ps=0u w=2e+06u l=1e+06u
X172 vdd.t52 vbias2.t72 vn.t33 vdd sky130_fd_pr__pfet_01v8_lvt ad=0p pd=0u as=0p ps=0u w=2e+06u l=1e+06u
X173 vdd.t168 vbias2.t24 vbias2.t25 vdd sky130_fd_pr__pfet_01v8_lvt ad=0p pd=0u as=0p ps=0u w=2e+06u l=1e+06u
X174 vdd.t53 vbias2.t73 vn.t32 vdd sky130_fd_pr__pfet_01v8_lvt ad=0p pd=0u as=0p ps=0u w=2e+06u l=1e+06u
X175 vdd.t125 vbias1.t76 vp.t110 vdd sky130_fd_pr__pfet_01v8_lvt ad=0p pd=0u as=0p ps=0u w=2e+06u l=1e+06u
X176 a_2843_3469.t27 vi.t6 w_1703_3250.t26 w_1703_3250# sky130_fd_pr__pfet_01v8_lvt ad=0p pd=0u as=0p ps=0u w=4e+06u l=1e+06u
X177 vdd.t124 vbias1.t77 w_1703_3250.t43 vdd sky130_fd_pr__pfet_01v8_lvt ad=0p pd=0u as=0p ps=0u w=2e+06u l=1e+06u
X178 vp.t46 a_2843_3469.t51 vss.t158 vss sky130_fd_pr__nfet_01v8_lvt ad=0p pd=0u as=0p ps=0u w=1e+06u l=1e+06u
X179 vn.t31 vbias2.t74 vdd.t44 vdd sky130_fd_pr__pfet_01v8_lvt ad=0p pd=0u as=0p ps=0u w=2e+06u l=1e+06u
X180 vss.t63 a_1899_n9663.t56 a_2843_n9575.t13 vss sky130_fd_pr__nfet_01v8_lvt ad=0p pd=0u as=0p ps=0u w=1e+06u l=1e+06u
X181 vss.t18 a_2843_n9575.t61 vn.t85 vss sky130_fd_pr__nfet_01v8_lvt ad=0p pd=0u as=0p ps=0u w=1e+06u l=1e+06u
X182 a_2843_n9575.t27 vref.t5 w_1703_n7563.t29 w_1703_n7563# sky130_fd_pr__pfet_01v8_lvt ad=0p pd=0u as=0p ps=0u w=4e+06u l=1e+06u
X183 vn.t30 vbias2.t75 vdd.t45 vdd sky130_fd_pr__pfet_01v8_lvt ad=0p pd=0u as=0p ps=0u w=2e+06u l=1e+06u
X184 w_1703_n7563.t5 vbias2.t76 vdd.t5 vdd sky130_fd_pr__pfet_01v8_lvt ad=0p pd=0u as=0p ps=0u w=2e+06u l=1e+06u
X185 vbias1.t35 vbias1.t34 vdd.t123 vdd sky130_fd_pr__pfet_01v8_lvt ad=0p pd=0u as=0p ps=0u w=2e+06u l=1e+06u
X186 a_1899_8066.t33 a_1899_8066.t32 vss.t190 vss sky130_fd_pr__nfet_01v8_lvt ad=0p pd=0u as=0p ps=0u w=1e+06u l=1e+06u
X187 vss.t157 a_2843_3469.t52 vp.t45 vss sky130_fd_pr__nfet_01v8_lvt ad=0p pd=0u as=0p ps=0u w=1e+06u l=1e+06u
X188 a_583_n5040.t1 vi.t0 vss sky130_fd_pr__res_xhigh_po w=350000u l=5e+06u
X189 a_2843_3469.t22 vi.t7 w_1703_3250.t21 w_1703_3250# sky130_fd_pr__pfet_01v8_lvt ad=0p pd=0u as=0p ps=0u w=4e+06u l=1e+06u
X190 w_1703_n7563.t48 OTA_revised_1/vn a_1899_n9663.t38 w_1703_n7563# sky130_fd_pr__pfet_01v8_lvt ad=0p pd=0u as=0p ps=0u w=4e+06u l=1e+06u
X191 vdd.t122 vbias1.t78 vp.t111 vdd sky130_fd_pr__pfet_01v8_lvt ad=0p pd=0u as=0p ps=0u w=2e+06u l=1e+06u
X192 vss.t191 a_1899_8066.t30 a_1899_8066.t31 vss sky130_fd_pr__nfet_01v8_lvt ad=0p pd=0u as=0p ps=0u w=1e+06u l=1e+06u
X193 w_1703_n7563.t47 OTA_revised_1/vn a_1899_n9663.t44 w_1703_n7563# sky130_fd_pr__pfet_01v8_lvt ad=0p pd=0u as=0p ps=0u w=4e+06u l=1e+06u
X194 vn.t29 vbias2.t77 vdd.t6 vdd sky130_fd_pr__pfet_01v8_lvt ad=0p pd=0u as=0p ps=0u w=2e+06u l=1e+06u
X195 vn.t28 vbias2.t78 vdd.t15 vdd sky130_fd_pr__pfet_01v8_lvt ad=0p pd=0u as=0p ps=0u w=2e+06u l=1e+06u
X196 vdd.t121 vbias1.t38 vbias1.t39 vdd sky130_fd_pr__pfet_01v8_lvt ad=0p pd=0u as=0p ps=0u w=2e+06u l=1e+06u
X197 vn.t27 vbias2.t79 vdd.t16 vdd sky130_fd_pr__pfet_01v8_lvt ad=0p pd=0u as=0p ps=0u w=2e+06u l=1e+06u
X198 a_5739_n5680.t0 OTA_revised_1/vn vss sky130_fd_pr__res_xhigh_po w=350000u l=5e+06u
X199 vss.t156 a_2843_3469.t53 vp.t44 vss sky130_fd_pr__nfet_01v8_lvt ad=0p pd=0u as=0p ps=0u w=1e+06u l=1e+06u
X200 a_1899_n9663.t34 OTA_revised_1/vn w_1703_n7563.t46 w_1703_n7563# sky130_fd_pr__pfet_01v8_lvt ad=0p pd=0u as=0p ps=0u w=4e+06u l=1e+06u
X201 vss.t155 a_2843_3469.t54 vp.t43 vss sky130_fd_pr__nfet_01v8_lvt ad=0p pd=0u as=0p ps=0u w=1e+06u l=1e+06u
X202 vn.t84 a_2843_n9575.t62 vss.t19 vss sky130_fd_pr__nfet_01v8_lvt ad=0p pd=0u as=0p ps=0u w=1e+06u l=1e+06u
X203 vn.t26 vbias2.t80 vdd.t183 vdd sky130_fd_pr__pfet_01v8_lvt ad=0p pd=0u as=0p ps=0u w=2e+06u l=1e+06u
X204 vss.t46 a_1899_n9663.t16 a_1899_n9663.t17 vss sky130_fd_pr__nfet_01v8_lvt ad=0p pd=0u as=0p ps=0u w=1e+06u l=1e+06u
X205 vdd.t120 vbias1.t0 vbias1.t1 vdd sky130_fd_pr__pfet_01v8_lvt ad=0p pd=0u as=0p ps=0u w=2e+06u l=1e+06u
X206 vp.t42 a_2843_3469.t55 vss.t154 vss sky130_fd_pr__nfet_01v8_lvt ad=0p pd=0u as=0p ps=0u w=1e+06u l=1e+06u
X207 vss.t153 a_2843_3469.t56 vp.t41 vss sky130_fd_pr__nfet_01v8_lvt ad=0p pd=0u as=0p ps=0u w=1e+06u l=1e+06u
X208 vss.t89 a_1899_n9663.t14 a_1899_n9663.t15 vss sky130_fd_pr__nfet_01v8_lvt ad=0p pd=0u as=0p ps=0u w=1e+06u l=1e+06u
X209 vss.t20 a_2843_n9575.t63 vn.t83 vss sky130_fd_pr__nfet_01v8_lvt ad=0p pd=0u as=0p ps=0u w=1e+06u l=1e+06u
X210 w_1703_n7563.t34 vref.t6 a_2843_n9575.t31 w_1703_n7563# sky130_fd_pr__pfet_01v8_lvt ad=0p pd=0u as=0p ps=0u w=4e+06u l=1e+06u
X211 vdd.t119 vbias1.t79 w_1703_3250.t42 vdd sky130_fd_pr__pfet_01v8_lvt ad=0p pd=0u as=0p ps=0u w=2e+06u l=1e+06u
X212 vp.t40 a_2843_3469.t57 vss.t152 vss sky130_fd_pr__nfet_01v8_lvt ad=0p pd=0u as=0p ps=0u w=1e+06u l=1e+06u
X213 a_1899_n9663.t13 a_1899_n9663.t12 vss.t178 vss sky130_fd_pr__nfet_01v8_lvt ad=0p pd=0u as=0p ps=0u w=1e+06u l=1e+06u
X214 a_1899_n9663.t11 a_1899_n9663.t10 vss.t62 vss sky130_fd_pr__nfet_01v8_lvt ad=0p pd=0u as=0p ps=0u w=1e+06u l=1e+06u
X215 vdd.t118 vbias1.t80 vp.t112 vdd sky130_fd_pr__pfet_01v8_lvt ad=0p pd=0u as=0p ps=0u w=2e+06u l=1e+06u
X216 w_1703_3250.t41 vbias1.t81 vdd.t117 vdd sky130_fd_pr__pfet_01v8_lvt ad=0p pd=0u as=0p ps=0u w=2e+06u l=1e+06u
X217 a_2843_n9575.t0 vref.t7 w_1703_n7563.t0 w_1703_n7563# sky130_fd_pr__pfet_01v8_lvt ad=0p pd=0u as=0p ps=0u w=4e+06u l=1e+06u
X218 vdd.t116 vbias1.t82 w_1703_3250.t40 vdd sky130_fd_pr__pfet_01v8_lvt ad=0p pd=0u as=0p ps=0u w=2e+06u l=1e+06u
X219 a_1899_8066.t7 vp.t119 w_1703_3250.t10 w_1703_3250# sky130_fd_pr__pfet_01v8_lvt ad=0p pd=0u as=0p ps=0u w=4e+06u l=1e+06u
X220 vss.t151 a_2843_3469.t58 vp.t39 vss sky130_fd_pr__nfet_01v8_lvt ad=0p pd=0u as=0p ps=0u w=1e+06u l=1e+06u
X221 vn.t82 a_2843_n9575.t64 vss.t21 vss sky130_fd_pr__nfet_01v8_lvt ad=0p pd=0u as=0p ps=0u w=1e+06u l=1e+06u
X222 vdd.t167 vbias2.t22 vbias2.t23 vdd sky130_fd_pr__pfet_01v8_lvt ad=0p pd=0u as=0p ps=0u w=2e+06u l=1e+06u
X223 vdd.t115 vbias1.t83 vp.t65 vdd sky130_fd_pr__pfet_01v8_lvt ad=0p pd=0u as=0p ps=0u w=2e+06u l=1e+06u
X224 w_1703_3250.t9 vp.t120 a_1899_8066.t8 w_1703_3250# sky130_fd_pr__pfet_01v8_lvt ad=0p pd=0u as=0p ps=0u w=4e+06u l=1e+06u
X225 w_1703_3250.t39 vbias1.t84 vdd.t114 vdd sky130_fd_pr__pfet_01v8_lvt ad=0p pd=0u as=0p ps=0u w=2e+06u l=1e+06u
X226 vdd.t113 vbias1.t85 w_1703_3250.t38 vdd sky130_fd_pr__pfet_01v8_lvt ad=0p pd=0u as=0p ps=0u w=2e+06u l=1e+06u
X227 vss.t22 a_2843_n9575.t65 vn.t81 vss sky130_fd_pr__nfet_01v8_lvt ad=0p pd=0u as=0p ps=0u w=1e+06u l=1e+06u
X228 vss.t150 a_2843_3469.t59 vp.t38 vss sky130_fd_pr__nfet_01v8_lvt ad=0p pd=0u as=0p ps=0u w=1e+06u l=1e+06u
X229 w_1703_n7563.t39 vbias2.t81 vdd.t184 vdd sky130_fd_pr__pfet_01v8_lvt ad=0p pd=0u as=0p ps=0u w=2e+06u l=1e+06u
X230 w_1703_n7563.t1 vbias2.t82 vdd.t0 vdd sky130_fd_pr__pfet_01v8_lvt ad=0p pd=0u as=0p ps=0u w=2e+06u l=1e+06u
X231 vss.t38 a_1899_8066.t54 a_2843_3469.t7 vss sky130_fd_pr__nfet_01v8_lvt ad=0p pd=0u as=0p ps=0u w=1e+06u l=1e+06u
X232 vss.t149 a_2843_3469.t60 vp.t37 vss sky130_fd_pr__nfet_01v8_lvt ad=0p pd=0u as=0p ps=0u w=1e+06u l=1e+06u
X233 vp.t36 a_2843_3469.t61 vss.t148 vss sky130_fd_pr__nfet_01v8_lvt ad=0p pd=0u as=0p ps=0u w=1e+06u l=1e+06u
X234 vp.t35 a_2843_3469.t62 vss.t147 vss sky130_fd_pr__nfet_01v8_lvt ad=0p pd=0u as=0p ps=0u w=1e+06u l=1e+06u
X235 vdd.t1 vbias2.t83 w_1703_n7563.t2 vdd sky130_fd_pr__pfet_01v8_lvt ad=0p pd=0u as=0p ps=0u w=2e+06u l=1e+06u
X236 a_2843_3469.t17 vi.t8 w_1703_3250.t20 w_1703_3250# sky130_fd_pr__pfet_01v8_lvt ad=0p pd=0u as=0p ps=0u w=4e+06u l=1e+06u
X237 vss.t35 a_1899_8066.t55 a_2843_3469.t4 vss sky130_fd_pr__nfet_01v8_lvt ad=0p pd=0u as=0p ps=0u w=1e+06u l=1e+06u
X238 vdd.t50 vbias2.t84 w_1703_n7563.t21 vdd sky130_fd_pr__pfet_01v8_lvt ad=0p pd=0u as=0p ps=0u w=2e+06u l=1e+06u
X239 vss.t146 a_2843_3469.t63 vp.t34 vss sky130_fd_pr__nfet_01v8_lvt ad=0p pd=0u as=0p ps=0u w=1e+06u l=1e+06u
X240 w_1703_n7563.t22 vbias2.t85 vdd.t51 vdd sky130_fd_pr__pfet_01v8_lvt ad=0p pd=0u as=0p ps=0u w=2e+06u l=1e+06u
X241 vdd.t112 vbias1.t86 vp.t66 vdd sky130_fd_pr__pfet_01v8_lvt ad=0p pd=0u as=0p ps=0u w=2e+06u l=1e+06u
X242 vp.t67 vbias1.t87 vdd.t111 vdd sky130_fd_pr__pfet_01v8_lvt ad=0p pd=0u as=0p ps=0u w=2e+06u l=1e+06u
X243 vdd.t110 vbias1.t88 vp.t68 vdd sky130_fd_pr__pfet_01v8_lvt ad=0p pd=0u as=0p ps=0u w=2e+06u l=1e+06u
X244 vp.t33 a_2843_3469.t64 vss.t145 vss sky130_fd_pr__nfet_01v8_lvt ad=0p pd=0u as=0p ps=0u w=1e+06u l=1e+06u
X245 vdd.t109 vbias1.t89 vp.t69 vdd sky130_fd_pr__pfet_01v8_lvt ad=0p pd=0u as=0p ps=0u w=2e+06u l=1e+06u
X246 vdd.t30 vbias2.t86 w_1703_n7563.t17 vdd sky130_fd_pr__pfet_01v8_lvt ad=0p pd=0u as=0p ps=0u w=2e+06u l=1e+06u
X247 vss.t102 a_1899_8066.t28 a_1899_8066.t29 vss sky130_fd_pr__nfet_01v8_lvt ad=0p pd=0u as=0p ps=0u w=1e+06u l=1e+06u
X248 vp.t70 vbias1.t90 vdd.t108 vdd sky130_fd_pr__pfet_01v8_lvt ad=0p pd=0u as=0p ps=0u w=2e+06u l=1e+06u
X249 a_1899_8066.t9 vp.t121 w_1703_3250.t8 w_1703_3250# sky130_fd_pr__pfet_01v8_lvt ad=0p pd=0u as=0p ps=0u w=4e+06u l=1e+06u
X250 vdd.t107 vbias1.t91 vp.t71 vdd sky130_fd_pr__pfet_01v8_lvt ad=0p pd=0u as=0p ps=0u w=2e+06u l=1e+06u
X251 a_1899_n9663.t9 a_1899_n9663.t8 vss.t70 vss sky130_fd_pr__nfet_01v8_lvt ad=0p pd=0u as=0p ps=0u w=1e+06u l=1e+06u
X252 vss.t94 a_2843_n9575.t66 vn.t80 vss sky130_fd_pr__nfet_01v8_lvt ad=0p pd=0u as=0p ps=0u w=1e+06u l=1e+06u
X253 vdd.t106 vbias1.t92 vp.t72 vdd sky130_fd_pr__pfet_01v8_lvt ad=0p pd=0u as=0p ps=0u w=2e+06u l=1e+06u
X254 vdd.t31 vbias2.t87 vn.t25 vdd sky130_fd_pr__pfet_01v8_lvt ad=0p pd=0u as=0p ps=0u w=2e+06u l=1e+06u
X255 vp.t32 a_2843_3469.t65 vss.t144 vss sky130_fd_pr__nfet_01v8_lvt ad=0p pd=0u as=0p ps=0u w=1e+06u l=1e+06u
X256 vss.t95 a_2843_n9575.t67 vn.t79 vss sky130_fd_pr__nfet_01v8_lvt ad=0p pd=0u as=0p ps=0u w=1e+06u l=1e+06u
X257 w_1703_3250.t7 vp.t122 a_1899_8066.t10 w_1703_3250# sky130_fd_pr__pfet_01v8_lvt ad=0p pd=0u as=0p ps=0u w=4e+06u l=1e+06u
X258 vdd.t105 vbias1.t2 vbias1.t3 vdd sky130_fd_pr__pfet_01v8_lvt ad=0p pd=0u as=0p ps=0u w=2e+06u l=1e+06u
X259 vss.t36 a_1899_8066.t56 a_2843_3469.t5 vss sky130_fd_pr__nfet_01v8_lvt ad=0p pd=0u as=0p ps=0u w=1e+06u l=1e+06u
X260 a_583_n5040.t0 OTA_revised_1/vn vss sky130_fd_pr__res_xhigh_po w=350000u l=5e+06u
X261 vss.t96 a_2843_n9575.t68 vn.t78 vss sky130_fd_pr__nfet_01v8_lvt ad=0p pd=0u as=0p ps=0u w=1e+06u l=1e+06u
X262 vss.t60 a_1899_n9663.t57 a_2843_n9575.t12 vss sky130_fd_pr__nfet_01v8_lvt ad=0p pd=0u as=0p ps=0u w=1e+06u l=1e+06u