* NGSPICE file created from half_driver_revised.ext - technology: sky130A

.subckt half_driver_post vdd vss vp_p out_p vp_n
X0 vdd.t2999 vp_p.t0 out_p.t2284 vdd sky130_fd_pr__pfet_01v8 ad=0p pd=0u as=0p ps=0u w=4e+06u l=150000u
X1 vdd.t2998 vp_p.t1 out_p.t2283 vdd sky130_fd_pr__pfet_01v8 ad=0p pd=0u as=0p ps=0u w=4e+06u l=150000u
X2 out_p.t2282 vp_p.t2 vdd.t2997 vdd sky130_fd_pr__pfet_01v8 ad=0p pd=0u as=0p ps=0u w=4e+06u l=150000u
X3 out_p.t422 vp_n.t0 vss.t599 vss sky130_fd_pr__nfet_01v8 ad=0p pd=0u as=0p ps=0u w=4e+06u l=150000u
X4 vdd.t2996 vp_p.t3 out_p.t2281 vdd sky130_fd_pr__pfet_01v8 ad=0p pd=0u as=0p ps=0u w=4e+06u l=150000u
X5 out_p.t2280 vp_p.t4 vdd.t2995 vdd sky130_fd_pr__pfet_01v8 ad=0p pd=0u as=0p ps=0u w=4e+06u l=150000u
X6 vdd.t2994 vp_p.t5 out_p.t2262 vdd sky130_fd_pr__pfet_01v8 ad=0p pd=0u as=0p ps=0u w=4e+06u l=150000u
X7 out_p.t2261 vp_p.t6 vdd.t2993 vdd sky130_fd_pr__pfet_01v8 ad=0p pd=0u as=0p ps=0u w=4e+06u l=150000u
X8 out_p.t2260 vp_p.t7 vdd.t2992 vdd sky130_fd_pr__pfet_01v8 ad=0p pd=0u as=0p ps=0u w=4e+06u l=150000u
X9 out_p.t2259 vp_p.t8 vdd.t2991 vdd sky130_fd_pr__pfet_01v8 ad=0p pd=0u as=0p ps=0u w=4e+06u l=150000u
X10 out_p.t2258 vp_p.t9 vdd.t2990 vdd sky130_fd_pr__pfet_01v8 ad=0p pd=0u as=0p ps=0u w=4e+06u l=150000u
X11 out_p.t3468 vp_n.t1 vss.t598 vss sky130_fd_pr__nfet_01v8 ad=0p pd=0u as=0p ps=0u w=4e+06u l=150000u
X12 out_p.t2257 vp_p.t10 vdd.t2989 vdd sky130_fd_pr__pfet_01v8 ad=0p pd=0u as=0p ps=0u w=4e+06u l=150000u
X13 out_p.t2248 vp_p.t11 vdd.t2988 vdd sky130_fd_pr__pfet_01v8 ad=0p pd=0u as=0p ps=0u w=4e+06u l=150000u
X14 vdd.t2987 vp_p.t12 out_p.t2247 vdd sky130_fd_pr__pfet_01v8 ad=0p pd=0u as=0p ps=0u w=4e+06u l=150000u
X15 vdd.t2986 vp_p.t13 out_p.t2246 vdd sky130_fd_pr__pfet_01v8 ad=0p pd=0u as=0p ps=0u w=4e+06u l=150000u
X16 out_p.t2245 vp_p.t14 vdd.t2985 vdd sky130_fd_pr__pfet_01v8 ad=0p pd=0u as=0p ps=0u w=4e+06u l=150000u
X17 out_p.t2244 vp_p.t15 vdd.t2984 vdd sky130_fd_pr__pfet_01v8 ad=0p pd=0u as=0p ps=0u w=4e+06u l=150000u
X18 vdd.t2983 vp_p.t16 out_p.t2243 vdd sky130_fd_pr__pfet_01v8 ad=0p pd=0u as=0p ps=0u w=4e+06u l=150000u
X19 out_p.t2225 vp_p.t17 vdd.t2982 vdd sky130_fd_pr__pfet_01v8 ad=0p pd=0u as=0p ps=0u w=4e+06u l=150000u
X20 vdd.t2981 vp_p.t18 out_p.t2224 vdd sky130_fd_pr__pfet_01v8 ad=0p pd=0u as=0p ps=0u w=4e+06u l=150000u
X21 vdd.t2980 vp_p.t19 out_p.t2223 vdd sky130_fd_pr__pfet_01v8 ad=0p pd=0u as=0p ps=0u w=4e+06u l=150000u
X22 out_p.t2222 vp_p.t20 vdd.t2979 vdd sky130_fd_pr__pfet_01v8 ad=0p pd=0u as=0p ps=0u w=4e+06u l=150000u
X23 out_p.t2221 vp_p.t21 vdd.t2978 vdd sky130_fd_pr__pfet_01v8 ad=0p pd=0u as=0p ps=0u w=4e+06u l=150000u
X24 vdd.t2977 vp_p.t22 out_p.t2220 vdd sky130_fd_pr__pfet_01v8 ad=0p pd=0u as=0p ps=0u w=4e+06u l=150000u
X25 out_p.t2212 vp_p.t23 vdd.t2976 vdd sky130_fd_pr__pfet_01v8 ad=0p pd=0u as=0p ps=0u w=4e+06u l=150000u
X26 out_p.t2211 vp_p.t24 vdd.t2975 vdd sky130_fd_pr__pfet_01v8 ad=0p pd=0u as=0p ps=0u w=4e+06u l=150000u
X27 out_p.t2210 vp_p.t25 vdd.t2974 vdd sky130_fd_pr__pfet_01v8 ad=0p pd=0u as=0p ps=0u w=4e+06u l=150000u
X28 out_p.t2209 vp_p.t26 vdd.t2973 vdd sky130_fd_pr__pfet_01v8 ad=0p pd=0u as=0p ps=0u w=4e+06u l=150000u
X29 vdd.t2972 vp_p.t27 out_p.t2208 vdd sky130_fd_pr__pfet_01v8 ad=0p pd=0u as=0p ps=0u w=4e+06u l=150000u
X30 out_p.t2207 vp_p.t28 vdd.t2971 vdd sky130_fd_pr__pfet_01v8 ad=0p pd=0u as=0p ps=0u w=4e+06u l=150000u
X31 vdd.t2970 vp_p.t29 out_p.t2199 vdd sky130_fd_pr__pfet_01v8 ad=0p pd=0u as=0p ps=0u w=4e+06u l=150000u
X32 vdd.t2969 vp_p.t30 out_p.t2198 vdd sky130_fd_pr__pfet_01v8 ad=0p pd=0u as=0p ps=0u w=4e+06u l=150000u
X33 out_p.t2197 vp_p.t31 vdd.t2968 vdd sky130_fd_pr__pfet_01v8 ad=0p pd=0u as=0p ps=0u w=4e+06u l=150000u
X34 out_p.t2196 vp_p.t32 vdd.t2967 vdd sky130_fd_pr__pfet_01v8 ad=0p pd=0u as=0p ps=0u w=4e+06u l=150000u
X35 out_p.t2195 vp_p.t33 vdd.t2966 vdd sky130_fd_pr__pfet_01v8 ad=0p pd=0u as=0p ps=0u w=4e+06u l=150000u
X36 vdd.t2965 vp_p.t34 out_p.t2194 vdd sky130_fd_pr__pfet_01v8 ad=0p pd=0u as=0p ps=0u w=4e+06u l=150000u
X37 vdd.t2964 vp_p.t35 out_p.t2176 vdd sky130_fd_pr__pfet_01v8 ad=0p pd=0u as=0p ps=0u w=4e+06u l=150000u
X38 out_p.t2175 vp_p.t36 vdd.t2963 vdd sky130_fd_pr__pfet_01v8 ad=0p pd=0u as=0p ps=0u w=4e+06u l=150000u
X39 out_p.t2174 vp_p.t37 vdd.t2962 vdd sky130_fd_pr__pfet_01v8 ad=0p pd=0u as=0p ps=0u w=4e+06u l=150000u
X40 vdd.t2961 vp_p.t38 out_p.t2173 vdd sky130_fd_pr__pfet_01v8 ad=0p pd=0u as=0p ps=0u w=4e+06u l=150000u
X41 out_p.t2172 vp_p.t39 vdd.t2960 vdd sky130_fd_pr__pfet_01v8 ad=0p pd=0u as=0p ps=0u w=4e+06u l=150000u
X42 vdd.t2959 vp_p.t40 out_p.t2171 vdd sky130_fd_pr__pfet_01v8 ad=0p pd=0u as=0p ps=0u w=4e+06u l=150000u
X43 vdd.t2958 vp_p.t41 out_p.t2163 vdd sky130_fd_pr__pfet_01v8 ad=0p pd=0u as=0p ps=0u w=4e+06u l=150000u
X44 vdd.t2957 vp_p.t42 out_p.t2162 vdd sky130_fd_pr__pfet_01v8 ad=0p pd=0u as=0p ps=0u w=4e+06u l=150000u
X45 vdd.t2956 vp_p.t43 out_p.t2161 vdd sky130_fd_pr__pfet_01v8 ad=0p pd=0u as=0p ps=0u w=4e+06u l=150000u
X46 out_p.t2160 vp_p.t44 vdd.t2955 vdd sky130_fd_pr__pfet_01v8 ad=0p pd=0u as=0p ps=0u w=4e+06u l=150000u
X47 vdd.t2954 vp_p.t45 out_p.t2159 vdd sky130_fd_pr__pfet_01v8 ad=0p pd=0u as=0p ps=0u w=4e+06u l=150000u
X48 out_p.t2158 vp_p.t46 vdd.t2953 vdd sky130_fd_pr__pfet_01v8 ad=0p pd=0u as=0p ps=0u w=4e+06u l=150000u
X49 out_p.t2140 vp_p.t47 vdd.t2952 vdd sky130_fd_pr__pfet_01v8 ad=0p pd=0u as=0p ps=0u w=4e+06u l=150000u
X50 out_p.t2139 vp_p.t48 vdd.t2951 vdd sky130_fd_pr__pfet_01v8 ad=0p pd=0u as=0p ps=0u w=4e+06u l=150000u
X51 out_p.t2138 vp_p.t49 vdd.t2950 vdd sky130_fd_pr__pfet_01v8 ad=0p pd=0u as=0p ps=0u w=4e+06u l=150000u
X52 vdd.t2949 vp_p.t50 out_p.t2137 vdd sky130_fd_pr__pfet_01v8 ad=0p pd=0u as=0p ps=0u w=4e+06u l=150000u
X53 out_p.t2136 vp_p.t51 vdd.t2948 vdd sky130_fd_pr__pfet_01v8 ad=0p pd=0u as=0p ps=0u w=4e+06u l=150000u
X54 out_p.t3467 vp_n.t2 vss.t597 vss sky130_fd_pr__nfet_01v8 ad=0p pd=0u as=0p ps=0u w=4e+06u l=150000u
X55 vss.t596 vp_n.t3 out_p.t3460 vss sky130_fd_pr__nfet_01v8 ad=0p pd=0u as=0p ps=0u w=4e+06u l=150000u
X56 vdd.t2947 vp_p.t52 out_p.t2135 vdd sky130_fd_pr__pfet_01v8 ad=0p pd=0u as=0p ps=0u w=4e+06u l=150000u
X57 out_p.t2117 vp_p.t53 vdd.t2946 vdd sky130_fd_pr__pfet_01v8 ad=0p pd=0u as=0p ps=0u w=4e+06u l=150000u
X58 vdd.t2945 vp_p.t54 out_p.t2116 vdd sky130_fd_pr__pfet_01v8 ad=0p pd=0u as=0p ps=0u w=4e+06u l=150000u
X59 out_p.t2115 vp_p.t55 vdd.t2944 vdd sky130_fd_pr__pfet_01v8 ad=0p pd=0u as=0p ps=0u w=4e+06u l=150000u
X60 vdd.t2943 vp_p.t56 out_p.t2114 vdd sky130_fd_pr__pfet_01v8 ad=0p pd=0u as=0p ps=0u w=4e+06u l=150000u
X61 out_p.t2113 vp_p.t57 vdd.t2942 vdd sky130_fd_pr__pfet_01v8 ad=0p pd=0u as=0p ps=0u w=4e+06u l=150000u
X62 out_p.t2112 vp_p.t58 vdd.t2941 vdd sky130_fd_pr__pfet_01v8 ad=0p pd=0u as=0p ps=0u w=4e+06u l=150000u
X63 vss.t595 vp_n.t4 out_p.t3456 vss sky130_fd_pr__nfet_01v8 ad=0p pd=0u as=0p ps=0u w=4e+06u l=150000u
X64 out_p.t2093 vp_p.t59 vdd.t2940 vdd sky130_fd_pr__pfet_01v8 ad=0p pd=0u as=0p ps=0u w=4e+06u l=150000u
X65 out_p.t2092 vp_p.t60 vdd.t2939 vdd sky130_fd_pr__pfet_01v8 ad=0p pd=0u as=0p ps=0u w=4e+06u l=150000u
X66 out_p.t2091 vp_p.t61 vdd.t2938 vdd sky130_fd_pr__pfet_01v8 ad=0p pd=0u as=0p ps=0u w=4e+06u l=150000u
X67 out_p.t2090 vp_p.t62 vdd.t2937 vdd sky130_fd_pr__pfet_01v8 ad=0p pd=0u as=0p ps=0u w=4e+06u l=150000u
X68 vdd.t2936 vp_p.t63 out_p.t2089 vdd sky130_fd_pr__pfet_01v8 ad=0p pd=0u as=0p ps=0u w=4e+06u l=150000u
X69 out_p.t2088 vp_p.t64 vdd.t2935 vdd sky130_fd_pr__pfet_01v8 ad=0p pd=0u as=0p ps=0u w=4e+06u l=150000u
X70 out_p.t2070 vp_p.t65 vdd.t2934 vdd sky130_fd_pr__pfet_01v8 ad=0p pd=0u as=0p ps=0u w=4e+06u l=150000u
X71 out_p.t2069 vp_p.t66 vdd.t2933 vdd sky130_fd_pr__pfet_01v8 ad=0p pd=0u as=0p ps=0u w=4e+06u l=150000u
X72 vdd.t2932 vp_p.t67 out_p.t2068 vdd sky130_fd_pr__pfet_01v8 ad=0p pd=0u as=0p ps=0u w=4e+06u l=150000u
X73 vdd.t2931 vp_p.t68 out_p.t2067 vdd sky130_fd_pr__pfet_01v8 ad=0p pd=0u as=0p ps=0u w=4e+06u l=150000u
X74 out_p.t2066 vp_p.t69 vdd.t2930 vdd sky130_fd_pr__pfet_01v8 ad=0p pd=0u as=0p ps=0u w=4e+06u l=150000u
X75 out_p.t2065 vp_p.t70 vdd.t2929 vdd sky130_fd_pr__pfet_01v8 ad=0p pd=0u as=0p ps=0u w=4e+06u l=150000u
X76 vdd.t2928 vp_p.t71 out_p.t2047 vdd sky130_fd_pr__pfet_01v8 ad=0p pd=0u as=0p ps=0u w=4e+06u l=150000u
X77 out_p.t2046 vp_p.t72 vdd.t2927 vdd sky130_fd_pr__pfet_01v8 ad=0p pd=0u as=0p ps=0u w=4e+06u l=150000u
X78 out_p.t2045 vp_p.t73 vdd.t2926 vdd sky130_fd_pr__pfet_01v8 ad=0p pd=0u as=0p ps=0u w=4e+06u l=150000u
X79 vdd.t2925 vp_p.t74 out_p.t2044 vdd sky130_fd_pr__pfet_01v8 ad=0p pd=0u as=0p ps=0u w=4e+06u l=150000u
X80 out_p.t2043 vp_p.t75 vdd.t2924 vdd sky130_fd_pr__pfet_01v8 ad=0p pd=0u as=0p ps=0u w=4e+06u l=150000u
X81 vss.t594 vp_n.t5 out_p.t3472 vss sky130_fd_pr__nfet_01v8 ad=0p pd=0u as=0p ps=0u w=4e+06u l=150000u
X82 vdd.t2923 vp_p.t76 out_p.t2042 vdd sky130_fd_pr__pfet_01v8 ad=0p pd=0u as=0p ps=0u w=4e+06u l=150000u
X83 out_p.t2024 vp_p.t77 vdd.t2922 vdd sky130_fd_pr__pfet_01v8 ad=0p pd=0u as=0p ps=0u w=4e+06u l=150000u
X84 vdd.t2921 vp_p.t78 out_p.t2023 vdd sky130_fd_pr__pfet_01v8 ad=0p pd=0u as=0p ps=0u w=4e+06u l=150000u
X85 vdd.t2920 vp_p.t79 out_p.t2022 vdd sky130_fd_pr__pfet_01v8 ad=0p pd=0u as=0p ps=0u w=4e+06u l=150000u
X86 vdd.t2919 vp_p.t80 out_p.t2021 vdd sky130_fd_pr__pfet_01v8 ad=0p pd=0u as=0p ps=0u w=4e+06u l=150000u
X87 vdd.t2918 vp_p.t81 out_p.t2020 vdd sky130_fd_pr__pfet_01v8 ad=0p pd=0u as=0p ps=0u w=4e+06u l=150000u
X88 vdd.t2917 vp_p.t82 out_p.t2019 vdd sky130_fd_pr__pfet_01v8 ad=0p pd=0u as=0p ps=0u w=4e+06u l=150000u
X89 vdd.t2916 vp_p.t83 out_p.t2001 vdd sky130_fd_pr__pfet_01v8 ad=0p pd=0u as=0p ps=0u w=4e+06u l=150000u
X90 vdd.t2915 vp_p.t84 out_p.t2000 vdd sky130_fd_pr__pfet_01v8 ad=0p pd=0u as=0p ps=0u w=4e+06u l=150000u
X91 out_p.t1999 vp_p.t85 vdd.t2914 vdd sky130_fd_pr__pfet_01v8 ad=0p pd=0u as=0p ps=0u w=4e+06u l=150000u
X92 out_p.t1998 vp_p.t86 vdd.t2913 vdd sky130_fd_pr__pfet_01v8 ad=0p pd=0u as=0p ps=0u w=4e+06u l=150000u
X93 out_p.t1997 vp_p.t87 vdd.t2912 vdd sky130_fd_pr__pfet_01v8 ad=0p pd=0u as=0p ps=0u w=4e+06u l=150000u
X94 vdd.t2911 vp_p.t88 out_p.t1996 vdd sky130_fd_pr__pfet_01v8 ad=0p pd=0u as=0p ps=0u w=4e+06u l=150000u
X95 vdd.t2910 vp_p.t89 out_p.t1978 vdd sky130_fd_pr__pfet_01v8 ad=0p pd=0u as=0p ps=0u w=4e+06u l=150000u
X96 out_p.t227 vp_n.t6 vss.t593 vss sky130_fd_pr__nfet_01v8 ad=0p pd=0u as=0p ps=0u w=4e+06u l=150000u
X97 vdd.t2909 vp_p.t90 out_p.t1977 vdd sky130_fd_pr__pfet_01v8 ad=0p pd=0u as=0p ps=0u w=4e+06u l=150000u
X98 out_p.t1976 vp_p.t91 vdd.t2908 vdd sky130_fd_pr__pfet_01v8 ad=0p pd=0u as=0p ps=0u w=4e+06u l=150000u
X99 vdd.t2907 vp_p.t92 out_p.t1975 vdd sky130_fd_pr__pfet_01v8 ad=0p pd=0u as=0p ps=0u w=4e+06u l=150000u
X100 vdd.t2906 vp_p.t93 out_p.t1974 vdd sky130_fd_pr__pfet_01v8 ad=0p pd=0u as=0p ps=0u w=4e+06u l=150000u
X101 vdd.t2905 vp_p.t94 out_p.t1973 vdd sky130_fd_pr__pfet_01v8 ad=0p pd=0u as=0p ps=0u w=4e+06u l=150000u
X102 vdd.t2904 vp_p.t95 out_p.t1955 vdd sky130_fd_pr__pfet_01v8 ad=0p pd=0u as=0p ps=0u w=4e+06u l=150000u
X103 out_p.t1954 vp_p.t96 vdd.t2903 vdd sky130_fd_pr__pfet_01v8 ad=0p pd=0u as=0p ps=0u w=4e+06u l=150000u
X104 vdd.t2902 vp_p.t97 out_p.t1953 vdd sky130_fd_pr__pfet_01v8 ad=0p pd=0u as=0p ps=0u w=4e+06u l=150000u
X105 vss.t592 vp_n.t7 out_p.t236 vss sky130_fd_pr__nfet_01v8 ad=0p pd=0u as=0p ps=0u w=4e+06u l=150000u
X106 vdd.t2901 vp_p.t98 out_p.t1952 vdd sky130_fd_pr__pfet_01v8 ad=0p pd=0u as=0p ps=0u w=4e+06u l=150000u
X107 vss.t591 vp_n.t8 out_p.t232 vss sky130_fd_pr__nfet_01v8 ad=0p pd=0u as=0p ps=0u w=4e+06u l=150000u
X108 vdd.t2900 vp_p.t99 out_p.t1951 vdd sky130_fd_pr__pfet_01v8 ad=0p pd=0u as=0p ps=0u w=4e+06u l=150000u
X109 out_p.t1950 vp_p.t100 vdd.t2899 vdd sky130_fd_pr__pfet_01v8 ad=0p pd=0u as=0p ps=0u w=4e+06u l=150000u
X110 out_p.t1942 vp_p.t101 vdd.t2898 vdd sky130_fd_pr__pfet_01v8 ad=0p pd=0u as=0p ps=0u w=4e+06u l=150000u
X111 out_p.t1941 vp_p.t102 vdd.t2897 vdd sky130_fd_pr__pfet_01v8 ad=0p pd=0u as=0p ps=0u w=4e+06u l=150000u
X112 out_p.t230 vp_n.t9 vss.t590 vss sky130_fd_pr__nfet_01v8 ad=0p pd=0u as=0p ps=0u w=4e+06u l=150000u
X113 out_p.t1940 vp_p.t103 vdd.t2896 vdd sky130_fd_pr__pfet_01v8 ad=0p pd=0u as=0p ps=0u w=4e+06u l=150000u
X114 vdd.t2895 vp_p.t104 out_p.t1939 vdd sky130_fd_pr__pfet_01v8 ad=0p pd=0u as=0p ps=0u w=4e+06u l=150000u
X115 vdd.t2894 vp_p.t105 out_p.t1938 vdd sky130_fd_pr__pfet_01v8 ad=0p pd=0u as=0p ps=0u w=4e+06u l=150000u
X116 vdd.t2893 vp_p.t106 out_p.t1937 vdd sky130_fd_pr__pfet_01v8 ad=0p pd=0u as=0p ps=0u w=4e+06u l=150000u
X117 out_p.t1919 vp_p.t107 vdd.t2892 vdd sky130_fd_pr__pfet_01v8 ad=0p pd=0u as=0p ps=0u w=4e+06u l=150000u
X118 out_p.t1918 vp_p.t108 vdd.t2891 vdd sky130_fd_pr__pfet_01v8 ad=0p pd=0u as=0p ps=0u w=4e+06u l=150000u
X119 vdd.t2890 vp_p.t109 out_p.t1917 vdd sky130_fd_pr__pfet_01v8 ad=0p pd=0u as=0p ps=0u w=4e+06u l=150000u
X120 out_p.t229 vp_n.t10 vss.t589 vss sky130_fd_pr__nfet_01v8 ad=0p pd=0u as=0p ps=0u w=4e+06u l=150000u
X121 vdd.t2889 vp_p.t110 out_p.t1916 vdd sky130_fd_pr__pfet_01v8 ad=0p pd=0u as=0p ps=0u w=4e+06u l=150000u
X122 vdd.t2888 vp_p.t111 out_p.t1915 vdd sky130_fd_pr__pfet_01v8 ad=0p pd=0u as=0p ps=0u w=4e+06u l=150000u
X123 out_p.t1914 vp_p.t112 vdd.t2887 vdd sky130_fd_pr__pfet_01v8 ad=0p pd=0u as=0p ps=0u w=4e+06u l=150000u
X124 out_p.t1896 vp_p.t113 vdd.t2886 vdd sky130_fd_pr__pfet_01v8 ad=0p pd=0u as=0p ps=0u w=4e+06u l=150000u
X125 out_p.t1895 vp_p.t114 vdd.t2885 vdd sky130_fd_pr__pfet_01v8 ad=0p pd=0u as=0p ps=0u w=4e+06u l=150000u
X126 out_p.t1894 vp_p.t115 vdd.t2884 vdd sky130_fd_pr__pfet_01v8 ad=0p pd=0u as=0p ps=0u w=4e+06u l=150000u
X127 vdd.t2883 vp_p.t116 out_p.t1893 vdd sky130_fd_pr__pfet_01v8 ad=0p pd=0u as=0p ps=0u w=4e+06u l=150000u
X128 out_p.t1892 vp_p.t117 vdd.t2882 vdd sky130_fd_pr__pfet_01v8 ad=0p pd=0u as=0p ps=0u w=4e+06u l=150000u
X129 vdd.t2881 vp_p.t118 out_p.t1891 vdd sky130_fd_pr__pfet_01v8 ad=0p pd=0u as=0p ps=0u w=4e+06u l=150000u
X130 vdd.t2880 vp_p.t119 out_p.t1873 vdd sky130_fd_pr__pfet_01v8 ad=0p pd=0u as=0p ps=0u w=4e+06u l=150000u
X131 out_p.t1872 vp_p.t120 vdd.t2879 vdd sky130_fd_pr__pfet_01v8 ad=0p pd=0u as=0p ps=0u w=4e+06u l=150000u
X132 out_p.t1871 vp_p.t121 vdd.t2878 vdd sky130_fd_pr__pfet_01v8 ad=0p pd=0u as=0p ps=0u w=4e+06u l=150000u
X133 vdd.t2877 vp_p.t122 out_p.t1870 vdd sky130_fd_pr__pfet_01v8 ad=0p pd=0u as=0p ps=0u w=4e+06u l=150000u
X134 out_p.t1869 vp_p.t123 vdd.t2876 vdd sky130_fd_pr__pfet_01v8 ad=0p pd=0u as=0p ps=0u w=4e+06u l=150000u
X135 vss.t588 vp_n.t11 out_p.t231 vss sky130_fd_pr__nfet_01v8 ad=0p pd=0u as=0p ps=0u w=4e+06u l=150000u
X136 out_p.t1868 vp_p.t124 vdd.t2875 vdd sky130_fd_pr__pfet_01v8 ad=0p pd=0u as=0p ps=0u w=4e+06u l=150000u
X137 vss.t587 vp_n.t12 out_p.t228 vss sky130_fd_pr__nfet_01v8 ad=0p pd=0u as=0p ps=0u w=4e+06u l=150000u
X138 out_p.t226 vp_n.t13 vss.t586 vss sky130_fd_pr__nfet_01v8 ad=0p pd=0u as=0p ps=0u w=4e+06u l=150000u
X139 vdd.t2874 vp_p.t125 out_p.t1850 vdd sky130_fd_pr__pfet_01v8 ad=0p pd=0u as=0p ps=0u w=4e+06u l=150000u
X140 vdd.t2873 vp_p.t126 out_p.t1849 vdd sky130_fd_pr__pfet_01v8 ad=0p pd=0u as=0p ps=0u w=4e+06u l=150000u
X141 vdd.t2872 vp_p.t127 out_p.t1848 vdd sky130_fd_pr__pfet_01v8 ad=0p pd=0u as=0p ps=0u w=4e+06u l=150000u
X142 vdd.t2871 vp_p.t128 out_p.t1847 vdd sky130_fd_pr__pfet_01v8 ad=0p pd=0u as=0p ps=0u w=4e+06u l=150000u
X143 vdd.t2870 vp_p.t129 out_p.t1846 vdd sky130_fd_pr__pfet_01v8 ad=0p pd=0u as=0p ps=0u w=4e+06u l=150000u
X144 out_p.t1845 vp_p.t130 vdd.t2869 vdd sky130_fd_pr__pfet_01v8 ad=0p pd=0u as=0p ps=0u w=4e+06u l=150000u
X145 vdd.t2868 vp_p.t131 out_p.t1837 vdd sky130_fd_pr__pfet_01v8 ad=0p pd=0u as=0p ps=0u w=4e+06u l=150000u
X146 out_p.t1836 vp_p.t132 vdd.t2867 vdd sky130_fd_pr__pfet_01v8 ad=0p pd=0u as=0p ps=0u w=4e+06u l=150000u
X147 out_p.t1835 vp_p.t133 vdd.t2866 vdd sky130_fd_pr__pfet_01v8 ad=0p pd=0u as=0p ps=0u w=4e+06u l=150000u
X148 vdd.t2865 vp_p.t134 out_p.t1834 vdd sky130_fd_pr__pfet_01v8 ad=0p pd=0u as=0p ps=0u w=4e+06u l=150000u
X149 vdd.t2864 vp_p.t135 out_p.t1833 vdd sky130_fd_pr__pfet_01v8 ad=0p pd=0u as=0p ps=0u w=4e+06u l=150000u
X150 out_p.t1832 vp_p.t136 vdd.t2863 vdd sky130_fd_pr__pfet_01v8 ad=0p pd=0u as=0p ps=0u w=4e+06u l=150000u
X151 out_p.t1814 vp_p.t137 vdd.t2862 vdd sky130_fd_pr__pfet_01v8 ad=0p pd=0u as=0p ps=0u w=4e+06u l=150000u
X152 vdd.t2861 vp_p.t138 out_p.t1813 vdd sky130_fd_pr__pfet_01v8 ad=0p pd=0u as=0p ps=0u w=4e+06u l=150000u
X153 vdd.t2860 vp_p.t139 out_p.t1812 vdd sky130_fd_pr__pfet_01v8 ad=0p pd=0u as=0p ps=0u w=4e+06u l=150000u
X154 out_p.t1811 vp_p.t140 vdd.t2859 vdd sky130_fd_pr__pfet_01v8 ad=0p pd=0u as=0p ps=0u w=4e+06u l=150000u
X155 out_p.t1810 vp_p.t141 vdd.t2858 vdd sky130_fd_pr__pfet_01v8 ad=0p pd=0u as=0p ps=0u w=4e+06u l=150000u
X156 out_p.t233 vp_n.t14 vss.t585 vss sky130_fd_pr__nfet_01v8 ad=0p pd=0u as=0p ps=0u w=4e+06u l=150000u
X157 out_p.t243 vp_n.t15 vss.t584 vss sky130_fd_pr__nfet_01v8 ad=0p pd=0u as=0p ps=0u w=4e+06u l=150000u
X158 out_p.t1809 vp_p.t142 vdd.t2857 vdd sky130_fd_pr__pfet_01v8 ad=0p pd=0u as=0p ps=0u w=4e+06u l=150000u
X159 vdd.t2856 vp_p.t143 out_p.t1791 vdd sky130_fd_pr__pfet_01v8 ad=0p pd=0u as=0p ps=0u w=4e+06u l=150000u
X160 out_p.t1790 vp_p.t144 vdd.t2855 vdd sky130_fd_pr__pfet_01v8 ad=0p pd=0u as=0p ps=0u w=4e+06u l=150000u
X161 out_p.t1789 vp_p.t145 vdd.t2854 vdd sky130_fd_pr__pfet_01v8 ad=0p pd=0u as=0p ps=0u w=4e+06u l=150000u
X162 vdd.t2853 vp_p.t146 out_p.t1788 vdd sky130_fd_pr__pfet_01v8 ad=0p pd=0u as=0p ps=0u w=4e+06u l=150000u
X163 vdd.t2852 vp_p.t147 out_p.t1787 vdd sky130_fd_pr__pfet_01v8 ad=0p pd=0u as=0p ps=0u w=4e+06u l=150000u
X164 out_p.t1786 vp_p.t148 vdd.t2851 vdd sky130_fd_pr__pfet_01v8 ad=0p pd=0u as=0p ps=0u w=4e+06u l=150000u
X165 vdd.t2850 vp_p.t149 out_p.t1767 vdd sky130_fd_pr__pfet_01v8 ad=0p pd=0u as=0p ps=0u w=4e+06u l=150000u
X166 out_p.t1766 vp_p.t150 vdd.t2849 vdd sky130_fd_pr__pfet_01v8 ad=0p pd=0u as=0p ps=0u w=4e+06u l=150000u
X167 vdd.t2848 vp_p.t151 out_p.t1765 vdd sky130_fd_pr__pfet_01v8 ad=0p pd=0u as=0p ps=0u w=4e+06u l=150000u
X168 vdd.t2847 vp_p.t152 out_p.t1764 vdd sky130_fd_pr__pfet_01v8 ad=0p pd=0u as=0p ps=0u w=4e+06u l=150000u
X169 vdd.t2846 vp_p.t153 out_p.t1763 vdd sky130_fd_pr__pfet_01v8 ad=0p pd=0u as=0p ps=0u w=4e+06u l=150000u
X170 vss.t583 vp_n.t16 out_p.t242 vss sky130_fd_pr__nfet_01v8 ad=0p pd=0u as=0p ps=0u w=4e+06u l=150000u
X171 vdd.t2845 vp_p.t154 out_p.t1762 vdd sky130_fd_pr__pfet_01v8 ad=0p pd=0u as=0p ps=0u w=4e+06u l=150000u
X172 vdd.t2844 vp_p.t155 out_p.t1744 vdd sky130_fd_pr__pfet_01v8 ad=0p pd=0u as=0p ps=0u w=4e+06u l=150000u
X173 vdd.t2843 vp_p.t156 out_p.t1743 vdd sky130_fd_pr__pfet_01v8 ad=0p pd=0u as=0p ps=0u w=4e+06u l=150000u
X174 vdd.t2842 vp_p.t157 out_p.t1742 vdd sky130_fd_pr__pfet_01v8 ad=0p pd=0u as=0p ps=0u w=4e+06u l=150000u
X175 vdd.t2841 vp_p.t158 out_p.t1741 vdd sky130_fd_pr__pfet_01v8 ad=0p pd=0u as=0p ps=0u w=4e+06u l=150000u
X176 vdd.t2840 vp_p.t159 out_p.t1740 vdd sky130_fd_pr__pfet_01v8 ad=0p pd=0u as=0p ps=0u w=4e+06u l=150000u
X177 vdd.t2839 vp_p.t160 out_p.t1739 vdd sky130_fd_pr__pfet_01v8 ad=0p pd=0u as=0p ps=0u w=4e+06u l=150000u
X178 out_p.t1731 vp_p.t161 vdd.t2838 vdd sky130_fd_pr__pfet_01v8 ad=0p pd=0u as=0p ps=0u w=4e+06u l=150000u
X179 vdd.t2837 vp_p.t162 out_p.t1730 vdd sky130_fd_pr__pfet_01v8 ad=0p pd=0u as=0p ps=0u w=4e+06u l=150000u
X180 out_p.t1729 vp_p.t163 vdd.t2836 vdd sky130_fd_pr__pfet_01v8 ad=0p pd=0u as=0p ps=0u w=4e+06u l=150000u
X181 out_p.t1728 vp_p.t164 vdd.t2835 vdd sky130_fd_pr__pfet_01v8 ad=0p pd=0u as=0p ps=0u w=4e+06u l=150000u
X182 out_p.t1727 vp_p.t165 vdd.t2834 vdd sky130_fd_pr__pfet_01v8 ad=0p pd=0u as=0p ps=0u w=4e+06u l=150000u
X183 vss.t582 vp_n.t17 out_p.t240 vss sky130_fd_pr__nfet_01v8 ad=0p pd=0u as=0p ps=0u w=4e+06u l=150000u
X184 out_p.t239 vp_n.t18 vss.t581 vss sky130_fd_pr__nfet_01v8 ad=0p pd=0u as=0p ps=0u w=4e+06u l=150000u
X185 vdd.t2833 vp_p.t166 out_p.t1726 vdd sky130_fd_pr__pfet_01v8 ad=0p pd=0u as=0p ps=0u w=4e+06u l=150000u
X186 vdd.t2832 vp_p.t167 out_p.t1708 vdd sky130_fd_pr__pfet_01v8 ad=0p pd=0u as=0p ps=0u w=4e+06u l=150000u
X187 vdd.t2831 vp_p.t168 out_p.t1707 vdd sky130_fd_pr__pfet_01v8 ad=0p pd=0u as=0p ps=0u w=4e+06u l=150000u
X188 vdd.t2830 vp_p.t169 out_p.t1706 vdd sky130_fd_pr__pfet_01v8 ad=0p pd=0u as=0p ps=0u w=4e+06u l=150000u
X189 vdd.t2829 vp_p.t170 out_p.t1705 vdd sky130_fd_pr__pfet_01v8 ad=0p pd=0u as=0p ps=0u w=4e+06u l=150000u
X190 out_p.t1704 vp_p.t171 vdd.t2828 vdd sky130_fd_pr__pfet_01v8 ad=0p pd=0u as=0p ps=0u w=4e+06u l=150000u
X191 out_p.t1703 vp_p.t172 vdd.t2827 vdd sky130_fd_pr__pfet_01v8 ad=0p pd=0u as=0p ps=0u w=4e+06u l=150000u
X192 out_p.t238 vp_n.t19 vss.t580 vss sky130_fd_pr__nfet_01v8 ad=0p pd=0u as=0p ps=0u w=4e+06u l=150000u
X193 out_p.t1685 vp_p.t173 vdd.t2826 vdd sky130_fd_pr__pfet_01v8 ad=0p pd=0u as=0p ps=0u w=4e+06u l=150000u
X194 vdd.t2825 vp_p.t174 out_p.t1684 vdd sky130_fd_pr__pfet_01v8 ad=0p pd=0u as=0p ps=0u w=4e+06u l=150000u
X195 vdd.t2824 vp_p.t175 out_p.t1683 vdd sky130_fd_pr__pfet_01v8 ad=0p pd=0u as=0p ps=0u w=4e+06u l=150000u
X196 vdd.t2823 vp_p.t176 out_p.t1682 vdd sky130_fd_pr__pfet_01v8 ad=0p pd=0u as=0p ps=0u w=4e+06u l=150000u
X197 vss.t579 vp_n.t20 out_p.t237 vss sky130_fd_pr__nfet_01v8 ad=0p pd=0u as=0p ps=0u w=4e+06u l=150000u
X198 out_p.t1681 vp_p.t177 vdd.t2822 vdd sky130_fd_pr__pfet_01v8 ad=0p pd=0u as=0p ps=0u w=4e+06u l=150000u
X199 vdd.t2821 vp_p.t178 out_p.t1680 vdd sky130_fd_pr__pfet_01v8 ad=0p pd=0u as=0p ps=0u w=4e+06u l=150000u
X200 vss.t578 vp_n.t21 out_p.t235 vss sky130_fd_pr__nfet_01v8 ad=0p pd=0u as=0p ps=0u w=4e+06u l=150000u
X201 vdd.t2820 vp_p.t179 out_p.t1662 vdd sky130_fd_pr__pfet_01v8 ad=0p pd=0u as=0p ps=0u w=4e+06u l=150000u
X202 out_p.t1661 vp_p.t180 vdd.t2819 vdd sky130_fd_pr__pfet_01v8 ad=0p pd=0u as=0p ps=0u w=4e+06u l=150000u
X203 out_p.t244 vp_n.t22 vss.t577 vss sky130_fd_pr__nfet_01v8 ad=0p pd=0u as=0p ps=0u w=4e+06u l=150000u
X204 vdd.t2818 vp_p.t181 out_p.t1660 vdd sky130_fd_pr__pfet_01v8 ad=0p pd=0u as=0p ps=0u w=4e+06u l=150000u
X205 out_p.t1659 vp_p.t182 vdd.t2817 vdd sky130_fd_pr__pfet_01v8 ad=0p pd=0u as=0p ps=0u w=4e+06u l=150000u
X206 vdd.t2816 vp_p.t183 out_p.t1658 vdd sky130_fd_pr__pfet_01v8 ad=0p pd=0u as=0p ps=0u w=4e+06u l=150000u
X207 out_p.t1657 vp_p.t184 vdd.t2815 vdd sky130_fd_pr__pfet_01v8 ad=0p pd=0u as=0p ps=0u w=4e+06u l=150000u
X208 out_p.t1638 vp_p.t185 vdd.t2814 vdd sky130_fd_pr__pfet_01v8 ad=0p pd=0u as=0p ps=0u w=4e+06u l=150000u
X209 out_p.t1637 vp_p.t186 vdd.t2813 vdd sky130_fd_pr__pfet_01v8 ad=0p pd=0u as=0p ps=0u w=4e+06u l=150000u
X210 out_p.t256 vp_n.t23 vss.t576 vss sky130_fd_pr__nfet_01v8 ad=0p pd=0u as=0p ps=0u w=4e+06u l=150000u
X211 vdd.t2812 vp_p.t187 out_p.t1636 vdd sky130_fd_pr__pfet_01v8 ad=0p pd=0u as=0p ps=0u w=4e+06u l=150000u
X212 vdd.t2811 vp_p.t188 out_p.t1635 vdd sky130_fd_pr__pfet_01v8 ad=0p pd=0u as=0p ps=0u w=4e+06u l=150000u
X213 out_p.t255 vp_n.t24 vss.t575 vss sky130_fd_pr__nfet_01v8 ad=0p pd=0u as=0p ps=0u w=4e+06u l=150000u
X214 vss.t574 vp_n.t25 out_p.t3444 vss sky130_fd_pr__nfet_01v8 ad=0p pd=0u as=0p ps=0u w=4e+06u l=150000u
X215 out_p.t1634 vp_p.t189 vdd.t2810 vdd sky130_fd_pr__pfet_01v8 ad=0p pd=0u as=0p ps=0u w=4e+06u l=150000u
X216 out_p.t1633 vp_p.t190 vdd.t2809 vdd sky130_fd_pr__pfet_01v8 ad=0p pd=0u as=0p ps=0u w=4e+06u l=150000u
X217 out_p.t1596 vp_p.t191 vdd.t2808 vdd sky130_fd_pr__pfet_01v8 ad=0p pd=0u as=0p ps=0u w=4e+06u l=150000u
X218 out_p.t1595 vp_p.t192 vdd.t2807 vdd sky130_fd_pr__pfet_01v8 ad=0p pd=0u as=0p ps=0u w=4e+06u l=150000u
X219 out_p.t1594 vp_p.t193 vdd.t2806 vdd sky130_fd_pr__pfet_01v8 ad=0p pd=0u as=0p ps=0u w=4e+06u l=150000u
X220 vdd.t2805 vp_p.t194 out_p.t1593 vdd sky130_fd_pr__pfet_01v8 ad=0p pd=0u as=0p ps=0u w=4e+06u l=150000u
X221 out_p.t253 vp_n.t26 vss.t573 vss sky130_fd_pr__nfet_01v8 ad=0p pd=0u as=0p ps=0u w=4e+06u l=150000u
X222 out_p.t1592 vp_p.t195 vdd.t2804 vdd sky130_fd_pr__pfet_01v8 ad=0p pd=0u as=0p ps=0u w=4e+06u l=150000u
X223 out_p.t1591 vp_p.t196 vdd.t2803 vdd sky130_fd_pr__pfet_01v8 ad=0p pd=0u as=0p ps=0u w=4e+06u l=150000u
X224 vdd.t2802 vp_p.t197 out_p.t1573 vdd sky130_fd_pr__pfet_01v8 ad=0p pd=0u as=0p ps=0u w=4e+06u l=150000u
X225 vdd.t2801 vp_p.t198 out_p.t1572 vdd sky130_fd_pr__pfet_01v8 ad=0p pd=0u as=0p ps=0u w=4e+06u l=150000u
X226 vdd.t2800 vp_p.t199 out_p.t1571 vdd sky130_fd_pr__pfet_01v8 ad=0p pd=0u as=0p ps=0u w=4e+06u l=150000u
X227 vss.t572 vp_n.t27 out_p.t251 vss sky130_fd_pr__nfet_01v8 ad=0p pd=0u as=0p ps=0u w=4e+06u l=150000u
X228 out_p.t1570 vp_p.t200 vdd.t2799 vdd sky130_fd_pr__pfet_01v8 ad=0p pd=0u as=0p ps=0u w=4e+06u l=150000u
X229 vss.t571 vp_n.t28 out_p.t249 vss sky130_fd_pr__nfet_01v8 ad=0p pd=0u as=0p ps=0u w=4e+06u l=150000u
X230 out_p.t1569 vp_p.t201 vdd.t2798 vdd sky130_fd_pr__pfet_01v8 ad=0p pd=0u as=0p ps=0u w=4e+06u l=150000u
X231 vdd.t2797 vp_p.t202 out_p.t1568 vdd sky130_fd_pr__pfet_01v8 ad=0p pd=0u as=0p ps=0u w=4e+06u l=150000u
X232 out_p.t1550 vp_p.t203 vdd.t2796 vdd sky130_fd_pr__pfet_01v8 ad=0p pd=0u as=0p ps=0u w=4e+06u l=150000u
X233 vdd.t2795 vp_p.t204 out_p.t1549 vdd sky130_fd_pr__pfet_01v8 ad=0p pd=0u as=0p ps=0u w=4e+06u l=150000u
X234 out_p.t247 vp_n.t29 vss.t570 vss sky130_fd_pr__nfet_01v8 ad=0p pd=0u as=0p ps=0u w=4e+06u l=150000u
X235 out_p.t1548 vp_p.t205 vdd.t2794 vdd sky130_fd_pr__pfet_01v8 ad=0p pd=0u as=0p ps=0u w=4e+06u l=150000u
X236 vdd.t2793 vp_p.t206 out_p.t1547 vdd sky130_fd_pr__pfet_01v8 ad=0p pd=0u as=0p ps=0u w=4e+06u l=150000u
X237 out_p.t1546 vp_p.t207 vdd.t2792 vdd sky130_fd_pr__pfet_01v8 ad=0p pd=0u as=0p ps=0u w=4e+06u l=150000u
X238 out_p.t260 vp_n.t30 vss.t569 vss sky130_fd_pr__nfet_01v8 ad=0p pd=0u as=0p ps=0u w=4e+06u l=150000u
X239 out_p.t1545 vp_p.t208 vdd.t2791 vdd sky130_fd_pr__pfet_01v8 ad=0p pd=0u as=0p ps=0u w=4e+06u l=150000u
X240 vss.t568 vp_n.t31 out_p.t268 vss sky130_fd_pr__nfet_01v8 ad=0p pd=0u as=0p ps=0u w=4e+06u l=150000u
X241 out_p.t1527 vp_p.t209 vdd.t2790 vdd sky130_fd_pr__pfet_01v8 ad=0p pd=0u as=0p ps=0u w=4e+06u l=150000u
X242 out_p.t1526 vp_p.t210 vdd.t2789 vdd sky130_fd_pr__pfet_01v8 ad=0p pd=0u as=0p ps=0u w=4e+06u l=150000u
X243 vdd.t2788 vp_p.t211 out_p.t1525 vdd sky130_fd_pr__pfet_01v8 ad=0p pd=0u as=0p ps=0u w=4e+06u l=150000u
X244 vdd.t2787 vp_p.t212 out_p.t1524 vdd sky130_fd_pr__pfet_01v8 ad=0p pd=0u as=0p ps=0u w=4e+06u l=150000u
X245 out_p.t265 vp_n.t32 vss.t567 vss sky130_fd_pr__nfet_01v8 ad=0p pd=0u as=0p ps=0u w=4e+06u l=150000u
X246 out_p.t1523 vp_p.t213 vdd.t2786 vdd sky130_fd_pr__pfet_01v8 ad=0p pd=0u as=0p ps=0u w=4e+06u l=150000u
X247 vdd.t2785 vp_p.t214 out_p.t1522 vdd sky130_fd_pr__pfet_01v8 ad=0p pd=0u as=0p ps=0u w=4e+06u l=150000u
X248 vdd.t2784 vp_p.t215 out_p.t1514 vdd sky130_fd_pr__pfet_01v8 ad=0p pd=0u as=0p ps=0u w=4e+06u l=150000u
X249 out_p.t1513 vp_p.t216 vdd.t2783 vdd sky130_fd_pr__pfet_01v8 ad=0p pd=0u as=0p ps=0u w=4e+06u l=150000u
X250 vdd.t2782 vp_p.t217 out_p.t1512 vdd sky130_fd_pr__pfet_01v8 ad=0p pd=0u as=0p ps=0u w=4e+06u l=150000u
X251 vss.t566 vp_n.t33 out_p.t264 vss sky130_fd_pr__nfet_01v8 ad=0p pd=0u as=0p ps=0u w=4e+06u l=150000u
X252 vdd.t2781 vp_p.t218 out_p.t1511 vdd sky130_fd_pr__pfet_01v8 ad=0p pd=0u as=0p ps=0u w=4e+06u l=150000u
X253 out_p.t1510 vp_p.t219 vdd.t2780 vdd sky130_fd_pr__pfet_01v8 ad=0p pd=0u as=0p ps=0u w=4e+06u l=150000u
X254 vss.t565 vp_n.t34 out_p.t263 vss sky130_fd_pr__nfet_01v8 ad=0p pd=0u as=0p ps=0u w=4e+06u l=150000u
X255 vdd.t2779 vp_p.t220 out_p.t1509 vdd sky130_fd_pr__pfet_01v8 ad=0p pd=0u as=0p ps=0u w=4e+06u l=150000u
X256 out_p.t1473 vp_p.t221 vdd.t2778 vdd sky130_fd_pr__pfet_01v8 ad=0p pd=0u as=0p ps=0u w=4e+06u l=150000u
X257 out_p.t1472 vp_p.t222 vdd.t2777 vdd sky130_fd_pr__pfet_01v8 ad=0p pd=0u as=0p ps=0u w=4e+06u l=150000u
X258 out_p.t1471 vp_p.t223 vdd.t2776 vdd sky130_fd_pr__pfet_01v8 ad=0p pd=0u as=0p ps=0u w=4e+06u l=150000u
X259 out_p.t261 vp_n.t35 vss.t564 vss sky130_fd_pr__nfet_01v8 ad=0p pd=0u as=0p ps=0u w=4e+06u l=150000u
X260 vdd.t2775 vp_p.t224 out_p.t1470 vdd sky130_fd_pr__pfet_01v8 ad=0p pd=0u as=0p ps=0u w=4e+06u l=150000u
X261 out_p.t1469 vp_p.t225 vdd.t2774 vdd sky130_fd_pr__pfet_01v8 ad=0p pd=0u as=0p ps=0u w=4e+06u l=150000u
X262 out_p.t345 vp_n.t36 vss.t563 vss sky130_fd_pr__nfet_01v8 ad=0p pd=0u as=0p ps=0u w=4e+06u l=150000u
X263 vss.t562 vp_n.t37 out_p.t267 vss sky130_fd_pr__nfet_01v8 ad=0p pd=0u as=0p ps=0u w=4e+06u l=150000u
X264 out_p.t1468 vp_p.t226 vdd.t2773 vdd sky130_fd_pr__pfet_01v8 ad=0p pd=0u as=0p ps=0u w=4e+06u l=150000u
X265 vdd.t2772 vp_p.t227 out_p.t1449 vdd sky130_fd_pr__pfet_01v8 ad=0p pd=0u as=0p ps=0u w=4e+06u l=150000u
X266 out_p.t250 vp_n.t38 vss.t561 vss sky130_fd_pr__nfet_01v8 ad=0p pd=0u as=0p ps=0u w=4e+06u l=150000u
X267 out_p.t1448 vp_p.t228 vdd.t2771 vdd sky130_fd_pr__pfet_01v8 ad=0p pd=0u as=0p ps=0u w=4e+06u l=150000u
X268 vdd.t2770 vp_p.t229 out_p.t1447 vdd sky130_fd_pr__pfet_01v8 ad=0p pd=0u as=0p ps=0u w=4e+06u l=150000u
X269 out_p.t3500 vp_n.t39 vss.t560 vss sky130_fd_pr__nfet_01v8 ad=0p pd=0u as=0p ps=0u w=4e+06u l=150000u
X270 out_p.t1446 vp_p.t230 vdd.t2769 vdd sky130_fd_pr__pfet_01v8 ad=0p pd=0u as=0p ps=0u w=4e+06u l=150000u
X271 vss.t559 vp_n.t40 out_p.t330 vss sky130_fd_pr__nfet_01v8 ad=0p pd=0u as=0p ps=0u w=4e+06u l=150000u
X272 vdd.t2768 vp_p.t231 out_p.t1445 vdd sky130_fd_pr__pfet_01v8 ad=0p pd=0u as=0p ps=0u w=4e+06u l=150000u
X273 vss.t558 vp_n.t41 out_p.t157 vss sky130_fd_pr__nfet_01v8 ad=0p pd=0u as=0p ps=0u w=4e+06u l=150000u
X274 out_p.t1444 vp_p.t232 vdd.t2767 vdd sky130_fd_pr__pfet_01v8 ad=0p pd=0u as=0p ps=0u w=4e+06u l=150000u
X275 vss.t557 vp_n.t42 out_p.t3578 vss sky130_fd_pr__nfet_01v8 ad=0p pd=0u as=0p ps=0u w=4e+06u l=150000u
X276 out_p.t1407 vp_p.t233 vdd.t2766 vdd sky130_fd_pr__pfet_01v8 ad=0p pd=0u as=0p ps=0u w=4e+06u l=150000u
X277 out_p.t1406 vp_p.t234 vdd.t2765 vdd sky130_fd_pr__pfet_01v8 ad=0p pd=0u as=0p ps=0u w=4e+06u l=150000u
X278 vdd.t2764 vp_p.t235 out_p.t1405 vdd sky130_fd_pr__pfet_01v8 ad=0p pd=0u as=0p ps=0u w=4e+06u l=150000u