* NGSPICE file created from half_driver.ext - technology: sky130A

.subckt half_driver vdd vp_p vp_n vss out_p
X0 vdd.t1499 vp_p.t0 out_p.t461 vdd sky130_fd_pr__pfet_01v8 ad=0p pd=0u as=0p ps=0u w=4e+06u l=150000u
X1 out_p.t460 vp_p.t1 vdd.t1498 vdd sky130_fd_pr__pfet_01v8 ad=0p pd=0u as=0p ps=0u w=4e+06u l=150000u
X2 vdd.t1497 vp_p.t2 out_p.t1213 vdd sky130_fd_pr__pfet_01v8 ad=0p pd=0u as=0p ps=0u w=4e+06u l=150000u
X3 out_p.t1212 vp_p.t3 vdd.t1496 vdd sky130_fd_pr__pfet_01v8 ad=0p pd=0u as=0p ps=0u w=4e+06u l=150000u
X4 out_p.t1033 vp_p.t4 vdd.t1495 vdd sky130_fd_pr__pfet_01v8 ad=0p pd=0u as=0p ps=0u w=4e+06u l=150000u
X5 vss.t299 vp_n.t0 out_p.t112 vss sky130_fd_pr__nfet_01v8 ad=0p pd=0u as=0p ps=0u w=4e+06u l=150000u
X6 out_p.t1032 vp_p.t5 vdd.t1494 vdd sky130_fd_pr__pfet_01v8 ad=0p pd=0u as=0p ps=0u w=4e+06u l=150000u
X7 vss.t298 vp_n.t1 out_p.t113 vss sky130_fd_pr__nfet_01v8 ad=0p pd=0u as=0p ps=0u w=4e+06u l=150000u
X8 vdd.t1493 vp_p.t6 out_p.t1045 vdd sky130_fd_pr__pfet_01v8 ad=0p pd=0u as=0p ps=0u w=4e+06u l=150000u
X9 vdd.t1492 vp_p.t7 out_p.t1044 vdd sky130_fd_pr__pfet_01v8 ad=0p pd=0u as=0p ps=0u w=4e+06u l=150000u
X10 out_p.t1489 vp_p.t8 vdd.t1491 vdd sky130_fd_pr__pfet_01v8 ad=0p pd=0u as=0p ps=0u w=4e+06u l=150000u
X11 vdd.t1490 vp_p.t9 out_p.t1488 vdd sky130_fd_pr__pfet_01v8 ad=0p pd=0u as=0p ps=0u w=4e+06u l=150000u
X12 vdd.t1489 vp_p.t10 out_p.t263 vdd sky130_fd_pr__pfet_01v8 ad=0p pd=0u as=0p ps=0u w=4e+06u l=150000u
X13 vdd.t1488 vp_p.t11 out_p.t262 vdd sky130_fd_pr__pfet_01v8 ad=0p pd=0u as=0p ps=0u w=4e+06u l=150000u
X14 vdd.t1487 vp_p.t12 out_p.t1241 vdd sky130_fd_pr__pfet_01v8 ad=0p pd=0u as=0p ps=0u w=4e+06u l=150000u
X15 out_p.t1240 vp_p.t13 vdd.t1486 vdd sky130_fd_pr__pfet_01v8 ad=0p pd=0u as=0p ps=0u w=4e+06u l=150000u
X16 vss.t297 vp_n.t2 out_p.t106 vss sky130_fd_pr__nfet_01v8 ad=0p pd=0u as=0p ps=0u w=4e+06u l=150000u
X17 out_p.t639 vp_p.t14 vdd.t1485 vdd sky130_fd_pr__pfet_01v8 ad=0p pd=0u as=0p ps=0u w=4e+06u l=150000u
X18 out_p.t638 vp_p.t15 vdd.t1484 vdd sky130_fd_pr__pfet_01v8 ad=0p pd=0u as=0p ps=0u w=4e+06u l=150000u
X19 out_p.t297 vp_p.t16 vdd.t1483 vdd sky130_fd_pr__pfet_01v8 ad=0p pd=0u as=0p ps=0u w=4e+06u l=150000u
X20 vdd.t1482 vp_p.t17 out_p.t296 vdd sky130_fd_pr__pfet_01v8 ad=0p pd=0u as=0p ps=0u w=4e+06u l=150000u
X21 out_p.t207 vp_p.t18 vdd.t1481 vdd sky130_fd_pr__pfet_01v8 ad=0p pd=0u as=0p ps=0u w=4e+06u l=150000u
X22 vdd.t1480 vp_p.t19 out_p.t206 vdd sky130_fd_pr__pfet_01v8 ad=0p pd=0u as=0p ps=0u w=4e+06u l=150000u
X23 vdd.t1479 vp_p.t20 out_p.t581 vdd sky130_fd_pr__pfet_01v8 ad=0p pd=0u as=0p ps=0u w=4e+06u l=150000u
X24 out_p.t580 vp_p.t21 vdd.t1478 vdd sky130_fd_pr__pfet_01v8 ad=0p pd=0u as=0p ps=0u w=4e+06u l=150000u
X25 vdd.t1477 vp_p.t22 out_p.t383 vdd sky130_fd_pr__pfet_01v8 ad=0p pd=0u as=0p ps=0u w=4e+06u l=150000u
X26 vdd.t1476 vp_p.t23 out_p.t382 vdd sky130_fd_pr__pfet_01v8 ad=0p pd=0u as=0p ps=0u w=4e+06u l=150000u
X27 out_p.t657 vp_p.t24 vdd.t1475 vdd sky130_fd_pr__pfet_01v8 ad=0p pd=0u as=0p ps=0u w=4e+06u l=150000u
X28 out_p.t107 vp_n.t3 vss.t296 vss sky130_fd_pr__nfet_01v8 ad=0p pd=0u as=0p ps=0u w=4e+06u l=150000u
X29 vdd.t1474 vp_p.t25 out_p.t656 vdd sky130_fd_pr__pfet_01v8 ad=0p pd=0u as=0p ps=0u w=4e+06u l=150000u
X30 out_p.t1307 vp_p.t26 vdd.t1473 vdd sky130_fd_pr__pfet_01v8 ad=0p pd=0u as=0p ps=0u w=4e+06u l=150000u
X31 vss.t295 vp_n.t4 out_p.t1772 vss sky130_fd_pr__nfet_01v8 ad=0p pd=0u as=0p ps=0u w=4e+06u l=150000u
X32 out_p.t1773 vp_n.t5 vss.t294 vss sky130_fd_pr__nfet_01v8 ad=0p pd=0u as=0p ps=0u w=4e+06u l=150000u
X33 vdd.t1472 vp_p.t27 out_p.t1306 vdd sky130_fd_pr__pfet_01v8 ad=0p pd=0u as=0p ps=0u w=4e+06u l=150000u
X34 out_p.t42 vp_n.t6 vss.t293 vss sky130_fd_pr__nfet_01v8 ad=0p pd=0u as=0p ps=0u w=4e+06u l=150000u
X35 vdd.t1471 vp_p.t28 out_p.t931 vdd sky130_fd_pr__pfet_01v8 ad=0p pd=0u as=0p ps=0u w=4e+06u l=150000u
X36 vdd.t1470 vp_p.t29 out_p.t930 vdd sky130_fd_pr__pfet_01v8 ad=0p pd=0u as=0p ps=0u w=4e+06u l=150000u
X37 vdd.t1469 vp_p.t30 out_p.t1075 vdd sky130_fd_pr__pfet_01v8 ad=0p pd=0u as=0p ps=0u w=4e+06u l=150000u
X38 out_p.t1074 vp_p.t31 vdd.t1468 vdd sky130_fd_pr__pfet_01v8 ad=0p pd=0u as=0p ps=0u w=4e+06u l=150000u
X39 vdd.t1467 vp_p.t32 out_p.t1451 vdd sky130_fd_pr__pfet_01v8 ad=0p pd=0u as=0p ps=0u w=4e+06u l=150000u
X40 vdd.t1466 vp_p.t33 out_p.t1450 vdd sky130_fd_pr__pfet_01v8 ad=0p pd=0u as=0p ps=0u w=4e+06u l=150000u
X41 vdd.t1465 vp_p.t34 out_p.t437 vdd sky130_fd_pr__pfet_01v8 ad=0p pd=0u as=0p ps=0u w=4e+06u l=150000u
X42 out_p.t436 vp_p.t35 vdd.t1464 vdd sky130_fd_pr__pfet_01v8 ad=0p pd=0u as=0p ps=0u w=4e+06u l=150000u
X43 out_p.t43 vp_n.t7 vss.t292 vss sky130_fd_pr__nfet_01v8 ad=0p pd=0u as=0p ps=0u w=4e+06u l=150000u
X44 out_p.t1051 vp_p.t36 vdd.t1463 vdd sky130_fd_pr__pfet_01v8 ad=0p pd=0u as=0p ps=0u w=4e+06u l=150000u
X45 out_p.t1050 vp_p.t37 vdd.t1462 vdd sky130_fd_pr__pfet_01v8 ad=0p pd=0u as=0p ps=0u w=4e+06u l=150000u
X46 vdd.t1461 vp_p.t38 out_p.t1551 vdd sky130_fd_pr__pfet_01v8 ad=0p pd=0u as=0p ps=0u w=4e+06u l=150000u
X47 vdd.t1460 vp_p.t39 out_p.t1550 vdd sky130_fd_pr__pfet_01v8 ad=0p pd=0u as=0p ps=0u w=4e+06u l=150000u
X48 out_p.t457 vp_p.t40 vdd.t1459 vdd sky130_fd_pr__pfet_01v8 ad=0p pd=0u as=0p ps=0u w=4e+06u l=150000u
X49 out_p.t1748 vp_n.t8 vss.t291 vss sky130_fd_pr__nfet_01v8 ad=0p pd=0u as=0p ps=0u w=4e+06u l=150000u
X50 vdd.t1458 vp_p.t41 out_p.t456 vdd sky130_fd_pr__pfet_01v8 ad=0p pd=0u as=0p ps=0u w=4e+06u l=150000u
X51 vdd.t1457 vp_p.t42 out_p.t1593 vdd sky130_fd_pr__pfet_01v8 ad=0p pd=0u as=0p ps=0u w=4e+06u l=150000u
X52 out_p.t1592 vp_p.t43 vdd.t1456 vdd sky130_fd_pr__pfet_01v8 ad=0p pd=0u as=0p ps=0u w=4e+06u l=150000u
X53 out_p.t1601 vp_p.t44 vdd.t1455 vdd sky130_fd_pr__pfet_01v8 ad=0p pd=0u as=0p ps=0u w=4e+06u l=150000u
X54 out_p.t1600 vp_p.t45 vdd.t1454 vdd sky130_fd_pr__pfet_01v8 ad=0p pd=0u as=0p ps=0u w=4e+06u l=150000u
X55 out_p.t239 vp_p.t46 vdd.t1453 vdd sky130_fd_pr__pfet_01v8 ad=0p pd=0u as=0p ps=0u w=4e+06u l=150000u
X56 vdd.t1452 vp_p.t47 out_p.t238 vdd sky130_fd_pr__pfet_01v8 ad=0p pd=0u as=0p ps=0u w=4e+06u l=150000u
X57 vdd.t1451 vp_p.t48 out_p.t1357 vdd sky130_fd_pr__pfet_01v8 ad=0p pd=0u as=0p ps=0u w=4e+06u l=150000u
X58 vss.t290 vp_n.t9 out_p.t1749 vss sky130_fd_pr__nfet_01v8 ad=0p pd=0u as=0p ps=0u w=4e+06u l=150000u
X59 vdd.t1450 vp_p.t49 out_p.t1356 vdd sky130_fd_pr__pfet_01v8 ad=0p pd=0u as=0p ps=0u w=4e+06u l=150000u
X60 vdd.t1449 vp_p.t50 out_p.t745 vdd sky130_fd_pr__pfet_01v8 ad=0p pd=0u as=0p ps=0u w=4e+06u l=150000u
X61 vdd.t1448 vp_p.t51 out_p.t744 vdd sky130_fd_pr__pfet_01v8 ad=0p pd=0u as=0p ps=0u w=4e+06u l=150000u
X62 vss.t289 vp_n.t10 out_p.t22 vss sky130_fd_pr__nfet_01v8 ad=0p pd=0u as=0p ps=0u w=4e+06u l=150000u
X63 out_p.t367 vp_p.t52 vdd.t1447 vdd sky130_fd_pr__pfet_01v8 ad=0p pd=0u as=0p ps=0u w=4e+06u l=150000u
X64 vdd.t1446 vp_p.t53 out_p.t366 vdd sky130_fd_pr__pfet_01v8 ad=0p pd=0u as=0p ps=0u w=4e+06u l=150000u
X65 out_p.t23 vp_n.t11 vss.t288 vss sky130_fd_pr__nfet_01v8 ad=0p pd=0u as=0p ps=0u w=4e+06u l=150000u
X66 out_p.t1760 vp_n.t12 vss.t287 vss sky130_fd_pr__nfet_01v8 ad=0p pd=0u as=0p ps=0u w=4e+06u l=150000u
X67 vdd.t1445 vp_p.t54 out_p.t223 vdd sky130_fd_pr__pfet_01v8 ad=0p pd=0u as=0p ps=0u w=4e+06u l=150000u
X68 out_p.t222 vp_p.t55 vdd.t1444 vdd sky130_fd_pr__pfet_01v8 ad=0p pd=0u as=0p ps=0u w=4e+06u l=150000u
X69 out_p.t1231 vp_p.t56 vdd.t1443 vdd sky130_fd_pr__pfet_01v8 ad=0p pd=0u as=0p ps=0u w=4e+06u l=150000u
X70 out_p.t1230 vp_p.t57 vdd.t1442 vdd sky130_fd_pr__pfet_01v8 ad=0p pd=0u as=0p ps=0u w=4e+06u l=150000u
X71 vdd.t1441 vp_p.t58 out_p.t1091 vdd sky130_fd_pr__pfet_01v8 ad=0p pd=0u as=0p ps=0u w=4e+06u l=150000u
X72 vdd.t1440 vp_p.t59 out_p.t1090 vdd sky130_fd_pr__pfet_01v8 ad=0p pd=0u as=0p ps=0u w=4e+06u l=150000u
X73 vdd.t1439 vp_p.t60 out_p.t933 vdd sky130_fd_pr__pfet_01v8 ad=0p pd=0u as=0p ps=0u w=4e+06u l=150000u
X74 vdd.t1438 vp_p.t61 out_p.t932 vdd sky130_fd_pr__pfet_01v8 ad=0p pd=0u as=0p ps=0u w=4e+06u l=150000u
X75 vdd.t1437 vp_p.t62 out_p.t1405 vdd sky130_fd_pr__pfet_01v8 ad=0p pd=0u as=0p ps=0u w=4e+06u l=150000u
X76 out_p.t1404 vp_p.t63 vdd.t1436 vdd sky130_fd_pr__pfet_01v8 ad=0p pd=0u as=0p ps=0u w=4e+06u l=150000u
X77 vss.t286 vp_n.t13 out_p.t1761 vss sky130_fd_pr__nfet_01v8 ad=0p pd=0u as=0p ps=0u w=4e+06u l=150000u
X78 out_p.t1035 vp_p.t64 vdd.t1435 vdd sky130_fd_pr__pfet_01v8 ad=0p pd=0u as=0p ps=0u w=4e+06u l=150000u
X79 vdd.t1434 vp_p.t65 out_p.t1034 vdd sky130_fd_pr__pfet_01v8 ad=0p pd=0u as=0p ps=0u w=4e+06u l=150000u
X80 vdd.t1433 vp_p.t66 out_p.t1073 vdd sky130_fd_pr__pfet_01v8 ad=0p pd=0u as=0p ps=0u w=4e+06u l=150000u
X81 vdd.t1432 vp_p.t67 out_p.t1072 vdd sky130_fd_pr__pfet_01v8 ad=0p pd=0u as=0p ps=0u w=4e+06u l=150000u
X82 vdd.t1431 vp_p.t68 out_p.t1185 vdd sky130_fd_pr__pfet_01v8 ad=0p pd=0u as=0p ps=0u w=4e+06u l=150000u
X83 out_p.t1184 vp_p.t69 vdd.t1430 vdd sky130_fd_pr__pfet_01v8 ad=0p pd=0u as=0p ps=0u w=4e+06u l=150000u
X84 out_p.t1752 vp_n.t14 vss.t285 vss sky130_fd_pr__nfet_01v8 ad=0p pd=0u as=0p ps=0u w=4e+06u l=150000u
X85 out_p.t375 vp_p.t70 vdd.t1429 vdd sky130_fd_pr__pfet_01v8 ad=0p pd=0u as=0p ps=0u w=4e+06u l=150000u
X86 out_p.t374 vp_p.t71 vdd.t1428 vdd sky130_fd_pr__pfet_01v8 ad=0p pd=0u as=0p ps=0u w=4e+06u l=150000u
X87 out_p.t1383 vp_p.t72 vdd.t1427 vdd sky130_fd_pr__pfet_01v8 ad=0p pd=0u as=0p ps=0u w=4e+06u l=150000u
X88 out_p.t1753 vp_n.t15 vss.t284 vss sky130_fd_pr__nfet_01v8 ad=0p pd=0u as=0p ps=0u w=4e+06u l=150000u
X89 vss.t283 vp_n.t16 out_p.t36 vss sky130_fd_pr__nfet_01v8 ad=0p pd=0u as=0p ps=0u w=4e+06u l=150000u
X90 vdd.t1426 vp_p.t73 out_p.t1382 vdd sky130_fd_pr__pfet_01v8 ad=0p pd=0u as=0p ps=0u w=4e+06u l=150000u
X91 out_p.t483 vp_p.t74 vdd.t1425 vdd sky130_fd_pr__pfet_01v8 ad=0p pd=0u as=0p ps=0u w=4e+06u l=150000u
X92 vdd.t1424 vp_p.t75 out_p.t482 vdd sky130_fd_pr__pfet_01v8 ad=0p pd=0u as=0p ps=0u w=4e+06u l=150000u
X93 vdd.t1423 vp_p.t76 out_p.t1303 vdd sky130_fd_pr__pfet_01v8 ad=0p pd=0u as=0p ps=0u w=4e+06u l=150000u
X94 out_p.t1302 vp_p.t77 vdd.t1422 vdd sky130_fd_pr__pfet_01v8 ad=0p pd=0u as=0p ps=0u w=4e+06u l=150000u
X95 vss.t282 vp_n.t17 out_p.t37 vss sky130_fd_pr__nfet_01v8 ad=0p pd=0u as=0p ps=0u w=4e+06u l=150000u
X96 out_p.t1505 vp_p.t78 vdd.t1421 vdd sky130_fd_pr__pfet_01v8 ad=0p pd=0u as=0p ps=0u w=4e+06u l=150000u
X97 vdd.t1420 vp_p.t79 out_p.t1504 vdd sky130_fd_pr__pfet_01v8 ad=0p pd=0u as=0p ps=0u w=4e+06u l=150000u
X98 out_p.t547 vp_p.t80 vdd.t1419 vdd sky130_fd_pr__pfet_01v8 ad=0p pd=0u as=0p ps=0u w=4e+06u l=150000u
X99 vdd.t1418 vp_p.t81 out_p.t546 vdd sky130_fd_pr__pfet_01v8 ad=0p pd=0u as=0p ps=0u w=4e+06u l=150000u
X100 vss.t281 vp_n.t18 out_p.t122 vss sky130_fd_pr__nfet_01v8 ad=0p pd=0u as=0p ps=0u w=4e+06u l=150000u
X101 vdd.t1417 vp_p.t82 out_p.t181 vdd sky130_fd_pr__pfet_01v8 ad=0p pd=0u as=0p ps=0u w=4e+06u l=150000u
X102 out_p.t180 vp_p.t83 vdd.t1416 vdd sky130_fd_pr__pfet_01v8 ad=0p pd=0u as=0p ps=0u w=4e+06u l=150000u
X103 out_p.t185 vp_p.t84 vdd.t1415 vdd sky130_fd_pr__pfet_01v8 ad=0p pd=0u as=0p ps=0u w=4e+06u l=150000u
X104 out_p.t123 vp_n.t19 vss.t280 vss sky130_fd_pr__nfet_01v8 ad=0p pd=0u as=0p ps=0u w=4e+06u l=150000u
X105 out_p.t184 vp_p.t85 vdd.t1414 vdd sky130_fd_pr__pfet_01v8 ad=0p pd=0u as=0p ps=0u w=4e+06u l=150000u
X106 out_p.t963 vp_p.t86 vdd.t1413 vdd sky130_fd_pr__pfet_01v8 ad=0p pd=0u as=0p ps=0u w=4e+06u l=150000u
X107 vdd.t1412 vp_p.t87 out_p.t962 vdd sky130_fd_pr__pfet_01v8 ad=0p pd=0u as=0p ps=0u w=4e+06u l=150000u
X108 vdd.t1411 vp_p.t88 out_p.t395 vdd sky130_fd_pr__pfet_01v8 ad=0p pd=0u as=0p ps=0u w=4e+06u l=150000u
X109 out_p.t130 vp_n.t20 vss.t279 vss sky130_fd_pr__nfet_01v8 ad=0p pd=0u as=0p ps=0u w=4e+06u l=150000u
X110 out_p.t131 vp_n.t21 vss.t278 vss sky130_fd_pr__nfet_01v8 ad=0p pd=0u as=0p ps=0u w=4e+06u l=150000u
X111 out_p.t394 vp_p.t89 vdd.t1410 vdd sky130_fd_pr__pfet_01v8 ad=0p pd=0u as=0p ps=0u w=4e+06u l=150000u
X112 out_p.t435 vp_p.t90 vdd.t1409 vdd sky130_fd_pr__pfet_01v8 ad=0p pd=0u as=0p ps=0u w=4e+06u l=150000u
X113 vdd.t1408 vp_p.t91 out_p.t434 vdd sky130_fd_pr__pfet_01v8 ad=0p pd=0u as=0p ps=0u w=4e+06u l=150000u
X114 vdd.t1407 vp_p.t92 out_p.t937 vdd sky130_fd_pr__pfet_01v8 ad=0p pd=0u as=0p ps=0u w=4e+06u l=150000u
X115 out_p.t936 vp_p.t93 vdd.t1406 vdd sky130_fd_pr__pfet_01v8 ad=0p pd=0u as=0p ps=0u w=4e+06u l=150000u
X116 out_p.t1455 vp_p.t94 vdd.t1405 vdd sky130_fd_pr__pfet_01v8 ad=0p pd=0u as=0p ps=0u w=4e+06u l=150000u
X117 vdd.t1404 vp_p.t95 out_p.t1454 vdd sky130_fd_pr__pfet_01v8 ad=0p pd=0u as=0p ps=0u w=4e+06u l=150000u
X118 vdd.t1403 vp_p.t96 out_p.t535 vdd sky130_fd_pr__pfet_01v8 ad=0p pd=0u as=0p ps=0u w=4e+06u l=150000u
X119 vdd.t1402 vp_p.t97 out_p.t534 vdd sky130_fd_pr__pfet_01v8 ad=0p pd=0u as=0p ps=0u w=4e+06u l=150000u
X120 out_p.t631 vp_p.t98 vdd.t1401 vdd sky130_fd_pr__pfet_01v8 ad=0p pd=0u as=0p ps=0u w=4e+06u l=150000u
X121 vss.t277 vp_n.t22 out_p.t134 vss sky130_fd_pr__nfet_01v8 ad=0p pd=0u as=0p ps=0u w=4e+06u l=150000u
X122 out_p.t135 vp_n.t23 vss.t276 vss sky130_fd_pr__nfet_01v8 ad=0p pd=0u as=0p ps=0u w=4e+06u l=150000u
X123 out_p.t630 vp_p.t99 vdd.t1400 vdd sky130_fd_pr__pfet_01v8 ad=0p pd=0u as=0p ps=0u w=4e+06u l=150000u
X124 out_p.t241 vp_p.t100 vdd.t1399 vdd sky130_fd_pr__pfet_01v8 ad=0p pd=0u as=0p ps=0u w=4e+06u l=150000u
X125 vss.t275 vp_n.t24 out_p.t138 vss sky130_fd_pr__nfet_01v8 ad=0p pd=0u as=0p ps=0u w=4e+06u l=150000u
X126 out_p.t240 vp_p.t101 vdd.t1398 vdd sky130_fd_pr__pfet_01v8 ad=0p pd=0u as=0p ps=0u w=4e+06u l=150000u
X127 vdd.t1397 vp_p.t102 out_p.t1107 vdd sky130_fd_pr__pfet_01v8 ad=0p pd=0u as=0p ps=0u w=4e+06u l=150000u
X128 out_p.t1106 vp_p.t103 vdd.t1396 vdd sky130_fd_pr__pfet_01v8 ad=0p pd=0u as=0p ps=0u w=4e+06u l=150000u
X129 vdd.t1395 vp_p.t104 out_p.t189 vdd sky130_fd_pr__pfet_01v8 ad=0p pd=0u as=0p ps=0u w=4e+06u l=150000u
X130 out_p.t188 vp_p.t105 vdd.t1394 vdd sky130_fd_pr__pfet_01v8 ad=0p pd=0u as=0p ps=0u w=4e+06u l=150000u
X131 out_p.t139 vp_n.t25 vss.t274 vss sky130_fd_pr__nfet_01v8 ad=0p pd=0u as=0p ps=0u w=4e+06u l=150000u
X132 vdd.t1393 vp_p.t106 out_p.t625 vdd sky130_fd_pr__pfet_01v8 ad=0p pd=0u as=0p ps=0u w=4e+06u l=150000u
X133 vdd.t1392 vp_p.t107 out_p.t624 vdd sky130_fd_pr__pfet_01v8 ad=0p pd=0u as=0p ps=0u w=4e+06u l=150000u
X134 vdd.t1391 vp_p.t108 out_p.t343 vdd sky130_fd_pr__pfet_01v8 ad=0p pd=0u as=0p ps=0u w=4e+06u l=150000u
X135 out_p.t342 vp_p.t109 vdd.t1390 vdd sky130_fd_pr__pfet_01v8 ad=0p pd=0u as=0p ps=0u w=4e+06u l=150000u
X136 out_p.t311 vp_p.t110 vdd.t1389 vdd sky130_fd_pr__pfet_01v8 ad=0p pd=0u as=0p ps=0u w=4e+06u l=150000u
X137 out_p.t310 vp_p.t111 vdd.t1388 vdd sky130_fd_pr__pfet_01v8 ad=0p pd=0u as=0p ps=0u w=4e+06u l=150000u
X138 out_p.t1481 vp_p.t112 vdd.t1387 vdd sky130_fd_pr__pfet_01v8 ad=0p pd=0u as=0p ps=0u w=4e+06u l=150000u
X139 out_p.t1480 vp_p.t113 vdd.t1386 vdd sky130_fd_pr__pfet_01v8 ad=0p pd=0u as=0p ps=0u w=4e+06u l=150000u
X140 vdd.t1385 vp_p.t114 out_p.t1577 vdd sky130_fd_pr__pfet_01v8 ad=0p pd=0u as=0p ps=0u w=4e+06u l=150000u
X141 vdd.t1384 vp_p.t115 out_p.t1576 vdd sky130_fd_pr__pfet_01v8 ad=0p pd=0u as=0p ps=0u w=4e+06u l=150000u
X142 out_p.t753 vp_p.t116 vdd.t1383 vdd sky130_fd_pr__pfet_01v8 ad=0p pd=0u as=0p ps=0u w=4e+06u l=150000u
X143 vdd.t1382 vp_p.t117 out_p.t752 vdd sky130_fd_pr__pfet_01v8 ad=0p pd=0u as=0p ps=0u w=4e+06u l=150000u
X144 vdd.t1381 vp_p.t118 out_p.t1459 vdd sky130_fd_pr__pfet_01v8 ad=0p pd=0u as=0p ps=0u w=4e+06u l=150000u
X145 vdd.t1380 vp_p.t119 out_p.t1458 vdd sky130_fd_pr__pfet_01v8 ad=0p pd=0u as=0p ps=0u w=4e+06u l=150000u
X146 vdd.t1379 vp_p.t120 out_p.t725 vdd sky130_fd_pr__pfet_01v8 ad=0p pd=0u as=0p ps=0u w=4e+06u l=150000u
X147 out_p.t724 vp_p.t121 vdd.t1378 vdd sky130_fd_pr__pfet_01v8 ad=0p pd=0u as=0p ps=0u w=4e+06u l=150000u
X148 vdd.t1377 vp_p.t122 out_p.t583 vdd sky130_fd_pr__pfet_01v8 ad=0p pd=0u as=0p ps=0u w=4e+06u l=150000u
X149 vss.t273 vp_n.t26 out_p.t128 vss sky130_fd_pr__nfet_01v8 ad=0p pd=0u as=0p ps=0u w=4e+06u l=150000u
X150 out_p.t582 vp_p.t123 vdd.t1376 vdd sky130_fd_pr__pfet_01v8 ad=0p pd=0u as=0p ps=0u w=4e+06u l=150000u
X151 vdd.t1375 vp_p.t124 out_p.t299 vdd sky130_fd_pr__pfet_01v8 ad=0p pd=0u as=0p ps=0u w=4e+06u l=150000u
X152 vdd.t1374 vp_p.t125 out_p.t298 vdd sky130_fd_pr__pfet_01v8 ad=0p pd=0u as=0p ps=0u w=4e+06u l=150000u
X153 vdd.t1373 vp_p.t126 out_p.t1579 vdd sky130_fd_pr__pfet_01v8 ad=0p pd=0u as=0p ps=0u w=4e+06u l=150000u
X154 vdd.t1372 vp_p.t127 out_p.t1578 vdd sky130_fd_pr__pfet_01v8 ad=0p pd=0u as=0p ps=0u w=4e+06u l=150000u
X155 vss.t272 vp_n.t27 out_p.t129 vss sky130_fd_pr__nfet_01v8 ad=0p pd=0u as=0p ps=0u w=4e+06u l=150000u
X156 vdd.t1371 vp_p.t128 out_p.t681 vdd sky130_fd_pr__pfet_01v8 ad=0p pd=0u as=0p ps=0u w=4e+06u l=150000u
X157 out_p.t680 vp_p.t129 vdd.t1370 vdd sky130_fd_pr__pfet_01v8 ad=0p pd=0u as=0p ps=0u w=4e+06u l=150000u
X158 vss.t271 vp_n.t28 out_p.t108 vss sky130_fd_pr__nfet_01v8 ad=0p pd=0u as=0p ps=0u w=4e+06u l=150000u
X159 vdd.t1369 vp_p.t130 out_p.t979 vdd sky130_fd_pr__pfet_01v8 ad=0p pd=0u as=0p ps=0u w=4e+06u l=150000u
X160 out_p.t978 vp_p.t131 vdd.t1368 vdd sky130_fd_pr__pfet_01v8 ad=0p pd=0u as=0p ps=0u w=4e+06u l=150000u
X161 out_p.t109 vp_n.t29 vss.t270 vss sky130_fd_pr__nfet_01v8 ad=0p pd=0u as=0p ps=0u w=4e+06u l=150000u
X162 out_p.t847 vp_p.t132 vdd.t1367 vdd sky130_fd_pr__pfet_01v8 ad=0p pd=0u as=0p ps=0u w=4e+06u l=150000u
X163 vdd.t1366 vp_p.t133 out_p.t846 vdd sky130_fd_pr__pfet_01v8 ad=0p pd=0u as=0p ps=0u w=4e+06u l=150000u
X164 out_p.t523 vp_p.t134 vdd.t1365 vdd sky130_fd_pr__pfet_01v8 ad=0p pd=0u as=0p ps=0u w=4e+06u l=150000u
X165 out_p.t522 vp_p.t135 vdd.t1364 vdd sky130_fd_pr__pfet_01v8 ad=0p pd=0u as=0p ps=0u w=4e+06u l=150000u
X166 out_p.t1347 vp_p.t136 vdd.t1363 vdd sky130_fd_pr__pfet_01v8 ad=0p pd=0u as=0p ps=0u w=4e+06u l=150000u
X167 vdd.t1362 vp_p.t137 out_p.t1346 vdd sky130_fd_pr__pfet_01v8 ad=0p pd=0u as=0p ps=0u w=4e+06u l=150000u
X168 vdd.t1361 vp_p.t138 out_p.t209 vdd sky130_fd_pr__pfet_01v8 ad=0p pd=0u as=0p ps=0u w=4e+06u l=150000u
X169 vdd.t1360 vp_p.t139 out_p.t208 vdd sky130_fd_pr__pfet_01v8 ad=0p pd=0u as=0p ps=0u w=4e+06u l=150000u
X170 out_p.t84 vp_n.t30 vss.t269 vss sky130_fd_pr__nfet_01v8 ad=0p pd=0u as=0p ps=0u w=4e+06u l=150000u
X171 vdd.t1359 vp_p.t140 out_p.t407 vdd sky130_fd_pr__pfet_01v8 ad=0p pd=0u as=0p ps=0u w=4e+06u l=150000u
X172 out_p.t406 vp_p.t141 vdd.t1358 vdd sky130_fd_pr__pfet_01v8 ad=0p pd=0u as=0p ps=0u w=4e+06u l=150000u
X173 out_p.t777 vp_p.t142 vdd.t1357 vdd sky130_fd_pr__pfet_01v8 ad=0p pd=0u as=0p ps=0u w=4e+06u l=150000u
X174 vdd.t1356 vp_p.t143 out_p.t776 vdd sky130_fd_pr__pfet_01v8 ad=0p pd=0u as=0p ps=0u w=4e+06u l=150000u
X175 vdd.t1355 vp_p.t144 out_p.t1201 vdd sky130_fd_pr__pfet_01v8 ad=0p pd=0u as=0p ps=0u w=4e+06u l=150000u
X176 vss.t268 vp_n.t31 out_p.t85 vss sky130_fd_pr__nfet_01v8 ad=0p pd=0u as=0p ps=0u w=4e+06u l=150000u
X177 out_p.t1200 vp_p.t145 vdd.t1354 vdd sky130_fd_pr__pfet_01v8 ad=0p pd=0u as=0p ps=0u w=4e+06u l=150000u
X178 out_p.t469 vp_p.t146 vdd.t1353 vdd sky130_fd_pr__pfet_01v8 ad=0p pd=0u as=0p ps=0u w=4e+06u l=150000u
X179 out_p.t468 vp_p.t147 vdd.t1352 vdd sky130_fd_pr__pfet_01v8 ad=0p pd=0u as=0p ps=0u w=4e+06u l=150000u
X180 vdd.t1351 vp_p.t148 out_p.t173 vdd sky130_fd_pr__pfet_01v8 ad=0p pd=0u as=0p ps=0u w=4e+06u l=150000u
X181 vdd.t1350 vp_p.t149 out_p.t172 vdd sky130_fd_pr__pfet_01v8 ad=0p pd=0u as=0p ps=0u w=4e+06u l=150000u
X182 vdd.t1349 vp_p.t150 out_p.t565 vdd sky130_fd_pr__pfet_01v8 ad=0p pd=0u as=0p ps=0u w=4e+06u l=150000u
X183 vdd.t1348 vp_p.t151 out_p.t564 vdd sky130_fd_pr__pfet_01v8 ad=0p pd=0u as=0p ps=0u w=4e+06u l=150000u
X184 out_p.t1155 vp_p.t152 vdd.t1347 vdd sky130_fd_pr__pfet_01v8 ad=0p pd=0u as=0p ps=0u w=4e+06u l=150000u
X185 out_p.t1722 vp_n.t32 vss.t267 vss sky130_fd_pr__nfet_01v8 ad=0p pd=0u as=0p ps=0u w=4e+06u l=150000u
X186 out_p.t1154 vp_p.t153 vdd.t1346 vdd sky130_fd_pr__pfet_01v8 ad=0p pd=0u as=0p ps=0u w=4e+06u l=150000u
X187 out_p.t1437 vp_p.t154 vdd.t1345 vdd sky130_fd_pr__pfet_01v8 ad=0p pd=0u as=0p ps=0u w=4e+06u l=150000u
X188 vdd.t1344 vp_p.t155 out_p.t1436 vdd sky130_fd_pr__pfet_01v8 ad=0p pd=0u as=0p ps=0u w=4e+06u l=150000u
X189 vdd.t1343 vp_p.t156 out_p.t793 vdd sky130_fd_pr__pfet_01v8 ad=0p pd=0u as=0p ps=0u w=4e+06u l=150000u
X190 vdd.t1342 vp_p.t157 out_p.t792 vdd sky130_fd_pr__pfet_01v8 ad=0p pd=0u as=0p ps=0u w=4e+06u l=150000u
X191 out_p.t425 vp_p.t158 vdd.t1341 vdd sky130_fd_pr__pfet_01v8 ad=0p pd=0u as=0p ps=0u w=4e+06u l=150000u
X192 out_p.t1723 vp_n.t33 vss.t266 vss sky130_fd_pr__nfet_01v8 ad=0p pd=0u as=0p ps=0u w=4e+06u l=150000u
X193 vss.t265 vp_n.t34 out_p.t1684 vss sky130_fd_pr__nfet_01v8 ad=0p pd=0u as=0p ps=0u w=4e+06u l=150000u
X194 out_p.t424 vp_p.t159 vdd.t1340 vdd sky130_fd_pr__pfet_01v8 ad=0p pd=0u as=0p ps=0u w=4e+06u l=150000u
X195 out_p.t1541 vp_p.t160 vdd.t1339 vdd sky130_fd_pr__pfet_01v8 ad=0p pd=0u as=0p ps=0u w=4e+06u l=150000u
X196 out_p.t1540 vp_p.t161 vdd.t1338 vdd sky130_fd_pr__pfet_01v8 ad=0p pd=0u as=0p ps=0u w=4e+06u l=150000u
X197 out_p.t1685 vp_n.t35 vss.t264 vss sky130_fd_pr__nfet_01v8 ad=0p pd=0u as=0p ps=0u w=4e+06u l=150000u
X198 vdd.t1337 vp_p.t162 out_p.t957 vdd sky130_fd_pr__pfet_01v8 ad=0p pd=0u as=0p ps=0u w=4e+06u l=150000u
X199 vdd.t1336 vp_p.t163 out_p.t956 vdd sky130_fd_pr__pfet_01v8 ad=0p pd=0u as=0p ps=0u w=4e+06u l=150000u
X200 out_p.t213 vp_p.t164 vdd.t1335 vdd sky130_fd_pr__pfet_01v8 ad=0p pd=0u as=0p ps=0u w=4e+06u l=150000u
X201 out_p.t212 vp_p.t165 vdd.t1334 vdd sky130_fd_pr__pfet_01v8 ad=0p pd=0u as=0p ps=0u w=4e+06u l=150000u
X202 vdd.t1333 vp_p.t166 out_p.t763 vdd sky130_fd_pr__pfet_01v8 ad=0p pd=0u as=0p ps=0u w=4e+06u l=150000u
X203 out_p.t762 vp_p.t167 vdd.t1332 vdd sky130_fd_pr__pfet_01v8 ad=0p pd=0u as=0p ps=0u w=4e+06u l=150000u
X204 out_p.t1561 vp_p.t168 vdd.t1331 vdd sky130_fd_pr__pfet_01v8 ad=0p pd=0u as=0p ps=0u w=4e+06u l=150000u
X205 vdd.t1330 vp_p.t169 out_p.t1560 vdd sky130_fd_pr__pfet_01v8 ad=0p pd=0u as=0p ps=0u w=4e+06u l=150000u
X206 vdd.t1329 vp_p.t170 out_p.t389 vdd sky130_fd_pr__pfet_01v8 ad=0p pd=0u as=0p ps=0u w=4e+06u l=150000u
X207 out_p.t388 vp_p.t171 vdd.t1328 vdd sky130_fd_pr__pfet_01v8 ad=0p pd=0u as=0p ps=0u w=4e+06u l=150000u
X208 out_p.t475 vp_p.t172 vdd.t1327 vdd sky130_fd_pr__pfet_01v8 ad=0p pd=0u as=0p ps=0u w=4e+06u l=150000u
X209 vss.t263 vp_n.t36 out_p.t1724 vss sky130_fd_pr__nfet_01v8 ad=0p pd=0u as=0p ps=0u w=4e+06u l=150000u
X210 vdd.t1326 vp_p.t173 out_p.t474 vdd sky130_fd_pr__pfet_01v8 ad=0p pd=0u as=0p ps=0u w=4e+06u l=150000u
X211 out_p.t969 vp_p.t174 vdd.t1325 vdd sky130_fd_pr__pfet_01v8 ad=0p pd=0u as=0p ps=0u w=4e+06u l=150000u
X212 vss.t262 vp_n.t37 out_p.t1725 vss sky130_fd_pr__nfet_01v8 ad=0p pd=0u as=0p ps=0u w=4e+06u l=150000u
X213 out_p.t968 vp_p.t175 vdd.t1324 vdd sky130_fd_pr__pfet_01v8 ad=0p pd=0u as=0p ps=0u w=4e+06u l=150000u
X214 vdd.t1323 vp_p.t176 out_p.t1413 vdd sky130_fd_pr__pfet_01v8 ad=0p pd=0u as=0p ps=0u w=4e+06u l=150000u
X215 out_p.t1412 vp_p.t177 vdd.t1322 vdd sky130_fd_pr__pfet_01v8 ad=0p pd=0u as=0p ps=0u w=4e+06u l=150000u
X216 vdd.t1321 vp_p.t178 out_p.t233 vdd sky130_fd_pr__pfet_01v8 ad=0p pd=0u as=0p ps=0u w=4e+06u l=150000u
X217 vdd.t1320 vp_p.t179 out_p.t232 vdd sky130_fd_pr__pfet_01v8 ad=0p pd=0u as=0p ps=0u w=4e+06u l=150000u
X218 vdd.t1319 vp_p.t180 out_p.t545 vdd sky130_fd_pr__pfet_01v8 ad=0p pd=0u as=0p ps=0u w=4e+06u l=150000u
X219 vdd.t1318 vp_p.t181 out_p.t544 vdd sky130_fd_pr__pfet_01v8 ad=0p pd=0u as=0p ps=0u w=4e+06u l=150000u
X220 out_p.t1053 vp_p.t182 vdd.t1317 vdd sky130_fd_pr__pfet_01v8 ad=0p pd=0u as=0p ps=0u w=4e+06u l=150000u
X221 vss.t261 vp_n.t38 out_p.t46 vss sky130_fd_pr__nfet_01v8 ad=0p pd=0u as=0p ps=0u w=4e+06u l=150000u
X222 out_p.t1052 vp_p.t183 vdd.t1316 vdd sky130_fd_pr__pfet_01v8 ad=0p pd=0u as=0p ps=0u w=4e+06u l=150000u
X223 out_p.t493 vp_p.t184 vdd.t1315 vdd sky130_fd_pr__pfet_01v8 ad=0p pd=0u as=0p ps=0u w=4e+06u l=150000u
X224 out_p.t492 vp_p.t185 vdd.t1314 vdd sky130_fd_pr__pfet_01v8 ad=0p pd=0u as=0p ps=0u w=4e+06u l=150000u
X225 vdd.t1313 vp_p.t186 out_p.t1227 vdd sky130_fd_pr__pfet_01v8 ad=0p pd=0u as=0p ps=0u w=4e+06u l=150000u
X226 out_p.t1226 vp_p.t187 vdd.t1312 vdd sky130_fd_pr__pfet_01v8 ad=0p pd=0u as=0p ps=0u w=4e+06u l=150000u
X227 vdd.t1311 vp_p.t188 out_p.t653 vdd sky130_fd_pr__pfet_01v8 ad=0p pd=0u as=0p ps=0u w=4e+06u l=150000u
X228 vdd.t1310 vp_p.t189 out_p.t652 vdd sky130_fd_pr__pfet_01v8 ad=0p pd=0u as=0p ps=0u w=4e+06u l=150000u
X229 out_p.t985 vp_p.t190 vdd.t1309 vdd sky130_fd_pr__pfet_01v8 ad=0p pd=0u as=0p ps=0u w=4e+06u l=150000u
X230 vdd.t1308 vp_p.t191 out_p.t984 vdd sky130_fd_pr__pfet_01v8 ad=0p pd=0u as=0p ps=0u w=4e+06u l=150000u
X231 out_p.t1093 vp_p.t192 vdd.t1307 vdd sky130_fd_pr__pfet_01v8 ad=0p pd=0u as=0p ps=0u w=4e+06u l=150000u
X232 out_p.t47 vp_n.t39 vss.t260 vss sky130_fd_pr__nfet_01v8 ad=0p pd=0u as=0p ps=0u w=4e+06u l=150000u
X233 out_p.t1092 vp_p.t193 vdd.t1306 vdd sky130_fd_pr__pfet_01v8 ad=0p pd=0u as=0p ps=0u w=4e+06u l=150000u
X234 vdd.t1305 vp_p.t194 out_p.t1159 vdd sky130_fd_pr__pfet_01v8 ad=0p pd=0u as=0p ps=0u w=4e+06u l=150000u
X235 out_p.t1158 vp_p.t195 vdd.t1304 vdd sky130_fd_pr__pfet_01v8 ad=0p pd=0u as=0p ps=0u w=4e+06u l=150000u
X236 vss.t259 vp_n.t40 out_p.t68 vss sky130_fd_pr__nfet_01v8 ad=0p pd=0u as=0p ps=0u w=4e+06u l=150000u
X237 out_p.t381 vp_p.t196 vdd.t1303 vdd sky130_fd_pr__pfet_01v8 ad=0p pd=0u as=0p ps=0u w=4e+06u l=150000u
X238 vdd.t1302 vp_p.t197 out_p.t380 vdd sky130_fd_pr__pfet_01v8 ad=0p pd=0u as=0p ps=0u w=4e+06u l=150000u
X239 out_p.t69 vp_n.t41 vss.t258 vss sky130_fd_pr__nfet_01v8 ad=0p pd=0u as=0p ps=0u w=4e+06u l=150000u
X240 out_p.t1401 vp_p.t198 vdd.t1301 vdd sky130_fd_pr__pfet_01v8 ad=0p pd=0u as=0p ps=0u w=4e+06u l=150000u
X241 vdd.t1300 vp_p.t199 out_p.t1400 vdd sky130_fd_pr__pfet_01v8 ad=0p pd=0u as=0p ps=0u w=4e+06u l=150000u
X242 out_p.t1617 vp_p.t200 vdd.t1299 vdd sky130_fd_pr__pfet_01v8 ad=0p pd=0u as=0p ps=0u w=4e+06u l=150000u
X243 vdd.t1298 vp_p.t201 out_p.t1616 vdd sky130_fd_pr__pfet_01v8 ad=0p pd=0u as=0p ps=0u w=4e+06u l=150000u
X244 vdd.t1297 vp_p.t202 out_p.t877 vdd sky130_fd_pr__pfet_01v8 ad=0p pd=0u as=0p ps=0u w=4e+06u l=150000u
X245 vdd.t1296 vp_p.t203 out_p.t876 vdd sky130_fd_pr__pfet_01v8 ad=0p pd=0u as=0p ps=0u w=4e+06u l=150000u
X246 out_p.t167 vp_p.t204 vdd.t1295 vdd sky130_fd_pr__pfet_01v8 ad=0p pd=0u as=0p ps=0u w=4e+06u l=150000u
X247 out_p.t32 vp_n.t42 vss.t257 vss sky130_fd_pr__nfet_01v8 ad=0p pd=0u as=0p ps=0u w=4e+06u l=150000u
X248 out_p.t166 vp_p.t205 vdd.t1294 vdd sky130_fd_pr__pfet_01v8 ad=0p pd=0u as=0p ps=0u w=4e+06u l=150000u
X249 vdd.t1293 vp_p.t206 out_p.t1149 vdd sky130_fd_pr__pfet_01v8 ad=0p pd=0u as=0p ps=0u w=4e+06u l=150000u
X250 out_p.t1148 vp_p.t207 vdd.t1292 vdd sky130_fd_pr__pfet_01v8 ad=0p pd=0u as=0p ps=0u w=4e+06u l=150000u
X251 out_p.t667 vp_p.t208 vdd.t1291 vdd sky130_fd_pr__pfet_01v8 ad=0p pd=0u as=0p ps=0u w=4e+06u l=150000u
X252 out_p.t666 vp_p.t209 vdd.t1290 vdd sky130_fd_pr__pfet_01v8 ad=0p pd=0u as=0p ps=0u w=4e+06u l=150000u
X253 out_p.t481 vp_p.t210 vdd.t1289 vdd sky130_fd_pr__pfet_01v8 ad=0p pd=0u as=0p ps=0u w=4e+06u l=150000u
X254 vdd.t1288 vp_p.t211 out_p.t480 vdd sky130_fd_pr__pfet_01v8 ad=0p pd=0u as=0p ps=0u w=4e+06u l=150000u
X255 out_p.t33 vp_n.t43 vss.t256 vss sky130_fd_pr__nfet_01v8 ad=0p pd=0u as=0p ps=0u w=4e+06u l=150000u
X256 vdd.t1287 vp_p.t212 out_p.t1061 vdd sky130_fd_pr__pfet_01v8 ad=0p pd=0u as=0p ps=0u w=4e+06u l=150000u
X257 out_p.t1060 vp_p.t213 vdd.t1286 vdd sky130_fd_pr__pfet_01v8 ad=0p pd=0u as=0p ps=0u w=4e+06u l=150000u
X258 vdd.t1285 vp_p.t214 out_p.t943 vdd sky130_fd_pr__pfet_01v8 ad=0p pd=0u as=0p ps=0u w=4e+06u l=150000u
X259 vdd.t1284 vp_p.t215 out_p.t942 vdd sky130_fd_pr__pfet_01v8 ad=0p pd=0u as=0p ps=0u w=4e+06u l=150000u
X260 out_p.t539 vp_p.t216 vdd.t1283 vdd sky130_fd_pr__pfet_01v8 ad=0p pd=0u as=0p ps=0u w=4e+06u l=150000u
X261 out_p.t538 vp_p.t217 vdd.t1282 vdd sky130_fd_pr__pfet_01v8 ad=0p pd=0u as=0p ps=0u w=4e+06u l=150000u
X262 out_p.t369 vp_p.t218 vdd.t1281 vdd sky130_fd_pr__pfet_01v8 ad=0p pd=0u as=0p ps=0u w=4e+06u l=150000u
X263 out_p.t368 vp_p.t219 vdd.t1280 vdd sky130_fd_pr__pfet_01v8 ad=0p pd=0u as=0p ps=0u w=4e+06u l=150000u
X264 vdd.t1279 vp_p.t220 out_p.t1529 vdd sky130_fd_pr__pfet_01v8 ad=0p pd=0u as=0p ps=0u w=4e+06u l=150000u
X265 vdd.t1278 vp_p.t221 out_p.t1528 vdd sky130_fd_pr__pfet_01v8 ad=0p pd=0u as=0p ps=0u w=4e+06u l=150000u
X266 vss.t255 vp_n.t44 out_p.t1730 vss sky130_fd_pr__nfet_01v8 ad=0p pd=0u as=0p ps=0u w=4e+06u l=150000u
X267 out_p.t513 vp_p.t222 vdd.t1277 vdd sky130_fd_pr__pfet_01v8 ad=0p pd=0u as=0p ps=0u w=4e+06u l=150000u
X268 vss.t254 vp_n.t45 out_p.t1731 vss sky130_fd_pr__nfet_01v8 ad=0p pd=0u as=0p ps=0u w=4e+06u l=150000u
X269 vdd.t1276 vp_p.t223 out_p.t512 vdd sky130_fd_pr__pfet_01v8 ad=0p pd=0u as=0p ps=0u w=4e+06u l=150000u
X270 vdd.t1275 vp_p.t224 out_p.t1643 vdd sky130_fd_pr__pfet_01v8 ad=0p pd=0u as=0p ps=0u w=4e+06u l=150000u
X271 vss.t253 vp_n.t46 out_p.t116 vss sky130_fd_pr__nfet_01v8 ad=0p pd=0u as=0p ps=0u w=4e+06u l=150000u
X272 out_p.t1642 vp_p.t225 vdd.t1274 vdd sky130_fd_pr__pfet_01v8 ad=0p pd=0u as=0p ps=0u w=4e+06u l=150000u
X273 out_p.t371 vp_p.t226 vdd.t1273 vdd sky130_fd_pr__pfet_01v8 ad=0p pd=0u as=0p ps=0u w=4e+06u l=150000u
X274 out_p.t370 vp_p.t227 vdd.t1272 vdd sky130_fd_pr__pfet_01v8 ad=0p pd=0u as=0p ps=0u w=4e+06u l=150000u
X275 vdd.t1271 vp_p.t228 out_p.t357 vdd sky130_fd_pr__pfet_01v8 ad=0p pd=0u as=0p ps=0u w=4e+06u l=150000u
X276 out_p.t356 vp_p.t229 vdd.t1270 vdd sky130_fd_pr__pfet_01v8 ad=0p pd=0u as=0p ps=0u w=4e+06u l=150000u
X277 vdd.t1269 vp_p.t230 out_p.t1031 vdd sky130_fd_pr__pfet_01v8 ad=0p pd=0u as=0p ps=0u w=4e+06u l=150000u
X278 out_p.t1030 vp_p.t231 vdd.t1268 vdd sky130_fd_pr__pfet_01v8 ad=0p pd=0u as=0p ps=0u w=4e+06u l=150000u
X279 out_p.t721 vp_p.t232 vdd.t1267 vdd sky130_fd_pr__pfet_01v8 ad=0p pd=0u as=0p ps=0u w=4e+06u l=150000u
X280 out_p.t720 vp_p.t233 vdd.t1266 vdd sky130_fd_pr__pfet_01v8 ad=0p pd=0u as=0p ps=0u w=4e+06u l=150000u