* NGSPICE file created from output_driver_post.ext - technology: sky130A

.subckt output_driver_post vdd1 vp_p out_p vss vp_n vn_p out_n vn_n vdd2
X0 out_n.t1761 vn_p.t0 vdd2.t1499 vdd2 sky130_fd_pr__pfet_01v8 ad=0p pd=0u as=0p ps=0u w=4e+06u l=150000u
X1 out_n.t1760 vn_p.t1 vdd2.t1498 vdd2 sky130_fd_pr__pfet_01v8 ad=0p pd=0u as=0p ps=0u w=4e+06u l=150000u
X2 vdd2.t1497 vn_p.t2 out_n.t1759 vdd2 sky130_fd_pr__pfet_01v8 ad=0p pd=0u as=0p ps=0u w=4e+06u l=150000u
X3 out_n.t1758 vn_p.t3 vdd2.t1496 vdd2 sky130_fd_pr__pfet_01v8 ad=0p pd=0u as=0p ps=0u w=4e+06u l=150000u
X4 vdd1.t1499 vp_p.t0 out_p.t946 vdd1 sky130_fd_pr__pfet_01v8 ad=0p pd=0u as=0p ps=0u w=4e+06u l=150000u
X5 vdd1.t1498 vp_p.t1 out_p.t1090 vdd1 sky130_fd_pr__pfet_01v8 ad=0p pd=0u as=0p ps=0u w=4e+06u l=150000u
X6 out_n.t1757 vn_p.t4 vdd2.t1495 vdd2 sky130_fd_pr__pfet_01v8 ad=0p pd=0u as=0p ps=0u w=4e+06u l=150000u
X7 out_p.t1094 vp_p.t2 vdd1.t1497 vdd1 sky130_fd_pr__pfet_01v8 ad=0p pd=0u as=0p ps=0u w=4e+06u l=150000u
X8 vdd2.t1494 vn_p.t5 out_n.t1756 vdd2 sky130_fd_pr__pfet_01v8 ad=0p pd=0u as=0p ps=0u w=4e+06u l=150000u
X9 out_n.t1755 vn_p.t6 vdd2.t1493 vdd2 sky130_fd_pr__pfet_01v8 ad=0p pd=0u as=0p ps=0u w=4e+06u l=150000u
X10 vdd2.t1492 vn_p.t7 out_n.t1754 vdd2 sky130_fd_pr__pfet_01v8 ad=0p pd=0u as=0p ps=0u w=4e+06u l=150000u
X11 out_n.t1753 vn_p.t8 vdd2.t1491 vdd2 sky130_fd_pr__pfet_01v8 ad=0p pd=0u as=0p ps=0u w=4e+06u l=150000u
X12 vss.t561 vp_n.t0 out_p.t1777 vss sky130_fd_pr__nfet_01v8 ad=0p pd=0u as=0p ps=0u w=4e+06u l=150000u
X13 vdd2.t1490 vn_p.t9 out_n.t1752 vdd2 sky130_fd_pr__pfet_01v8 ad=0p pd=0u as=0p ps=0u w=4e+06u l=150000u
X14 vss.t258 vn_n.t0 out_n.t258 vss sky130_fd_pr__nfet_01v8 ad=0p pd=0u as=0p ps=0u w=4e+06u l=150000u
X15 out_n.t1751 vn_p.t10 vdd2.t1489 vdd2 sky130_fd_pr__pfet_01v8 ad=0p pd=0u as=0p ps=0u w=4e+06u l=150000u
X16 out_n.t1750 vn_p.t11 vdd2.t1488 vdd2 sky130_fd_pr__pfet_01v8 ad=0p pd=0u as=0p ps=0u w=4e+06u l=150000u
X17 out_n.t1749 vn_p.t12 vdd2.t1487 vdd2 sky130_fd_pr__pfet_01v8 ad=0p pd=0u as=0p ps=0u w=4e+06u l=150000u
X18 out_n.t1748 vn_p.t13 vdd2.t1486 vdd2 sky130_fd_pr__pfet_01v8 ad=0p pd=0u as=0p ps=0u w=4e+06u l=150000u
X19 vdd2.t1485 vn_p.t14 out_n.t1747 vdd2 sky130_fd_pr__pfet_01v8 ad=0p pd=0u as=0p ps=0u w=4e+06u l=150000u
X20 out_n.t1746 vn_p.t15 vdd2.t1484 vdd2 sky130_fd_pr__pfet_01v8 ad=0p pd=0u as=0p ps=0u w=4e+06u l=150000u
X21 out_p.t1778 vp_n.t1 vss.t560 vss sky130_fd_pr__nfet_01v8 ad=0p pd=0u as=0p ps=0u w=4e+06u l=150000u
X22 vdd2.t1483 vn_p.t16 out_n.t1745 vdd2 sky130_fd_pr__pfet_01v8 ad=0p pd=0u as=0p ps=0u w=4e+06u l=150000u
X23 vdd2.t1482 vn_p.t17 out_n.t1744 vdd2 sky130_fd_pr__pfet_01v8 ad=0p pd=0u as=0p ps=0u w=4e+06u l=150000u
X24 out_n.t259 vn_n.t1 vss.t259 vss sky130_fd_pr__nfet_01v8 ad=0p pd=0u as=0p ps=0u w=4e+06u l=150000u
X25 vdd2.t1481 vn_p.t18 out_n.t1743 vdd2 sky130_fd_pr__pfet_01v8 ad=0p pd=0u as=0p ps=0u w=4e+06u l=150000u
X26 out_p.t606 vp_p.t3 vdd1.t1496 vdd1 sky130_fd_pr__pfet_01v8 ad=0p pd=0u as=0p ps=0u w=4e+06u l=150000u
X27 vdd1.t1495 vp_p.t4 out_p.t607 vdd1 sky130_fd_pr__pfet_01v8 ad=0p pd=0u as=0p ps=0u w=4e+06u l=150000u
X28 vdd2.t1480 vn_p.t19 out_n.t1742 vdd2 sky130_fd_pr__pfet_01v8 ad=0p pd=0u as=0p ps=0u w=4e+06u l=150000u
X29 out_p.t608 vp_p.t5 vdd1.t1494 vdd1 sky130_fd_pr__pfet_01v8 ad=0p pd=0u as=0p ps=0u w=4e+06u l=150000u
X30 vdd1.t1493 vp_p.t6 out_p.t598 vdd1 sky130_fd_pr__pfet_01v8 ad=0p pd=0u as=0p ps=0u w=4e+06u l=150000u
X31 out_n.t1741 vn_p.t20 vdd2.t1479 vdd2 sky130_fd_pr__pfet_01v8 ad=0p pd=0u as=0p ps=0u w=4e+06u l=150000u
X32 out_p.t599 vp_p.t7 vdd1.t1492 vdd1 sky130_fd_pr__pfet_01v8 ad=0p pd=0u as=0p ps=0u w=4e+06u l=150000u
X33 out_p.t610 vp_p.t8 vdd1.t1491 vdd1 sky130_fd_pr__pfet_01v8 ad=0p pd=0u as=0p ps=0u w=4e+06u l=150000u
X34 vdd2.t1478 vn_p.t21 out_n.t1740 vdd2 sky130_fd_pr__pfet_01v8 ad=0p pd=0u as=0p ps=0u w=4e+06u l=150000u
X35 out_p.t600 vp_p.t9 vdd1.t1490 vdd1 sky130_fd_pr__pfet_01v8 ad=0p pd=0u as=0p ps=0u w=4e+06u l=150000u
X36 vdd1.t1489 vp_p.t10 out_p.t588 vdd1 sky130_fd_pr__pfet_01v8 ad=0p pd=0u as=0p ps=0u w=4e+06u l=150000u
X37 vdd2.t1477 vn_p.t22 out_n.t1739 vdd2 sky130_fd_pr__pfet_01v8 ad=0p pd=0u as=0p ps=0u w=4e+06u l=150000u
X38 vdd1.t1488 vp_p.t11 out_p.t601 vdd1 sky130_fd_pr__pfet_01v8 ad=0p pd=0u as=0p ps=0u w=4e+06u l=150000u
X39 out_p.t589 vp_p.t12 vdd1.t1487 vdd1 sky130_fd_pr__pfet_01v8 ad=0p pd=0u as=0p ps=0u w=4e+06u l=150000u
X40 out_p.t602 vp_p.t13 vdd1.t1486 vdd1 sky130_fd_pr__pfet_01v8 ad=0p pd=0u as=0p ps=0u w=4e+06u l=150000u
X41 vdd1.t1485 vp_p.t14 out_p.t590 vdd1 sky130_fd_pr__pfet_01v8 ad=0p pd=0u as=0p ps=0u w=4e+06u l=150000u
X42 out_n.t260 vn_n.t2 vss.t260 vss sky130_fd_pr__nfet_01v8 ad=0p pd=0u as=0p ps=0u w=4e+06u l=150000u
X43 vdd2.t1476 vn_p.t23 out_n.t1738 vdd2 sky130_fd_pr__pfet_01v8 ad=0p pd=0u as=0p ps=0u w=4e+06u l=150000u
X44 out_n.t1737 vn_p.t24 vdd2.t1475 vdd2 sky130_fd_pr__pfet_01v8 ad=0p pd=0u as=0p ps=0u w=4e+06u l=150000u
X45 out_n.t1736 vn_p.t25 vdd2.t1474 vdd2 sky130_fd_pr__pfet_01v8 ad=0p pd=0u as=0p ps=0u w=4e+06u l=150000u
X46 vdd2.t1473 vn_p.t26 out_n.t1735 vdd2 sky130_fd_pr__pfet_01v8 ad=0p pd=0u as=0p ps=0u w=4e+06u l=150000u
X47 vdd1.t1484 vp_p.t15 out_p.t580 vdd1 sky130_fd_pr__pfet_01v8 ad=0p pd=0u as=0p ps=0u w=4e+06u l=150000u
X48 vdd1.t1483 vp_p.t16 out_p.t591 vdd1 sky130_fd_pr__pfet_01v8 ad=0p pd=0u as=0p ps=0u w=4e+06u l=150000u
X49 vdd2.t1472 vn_p.t27 out_n.t1734 vdd2 sky130_fd_pr__pfet_01v8 ad=0p pd=0u as=0p ps=0u w=4e+06u l=150000u
X50 vss.t261 vn_n.t3 out_n.t261 vss sky130_fd_pr__nfet_01v8 ad=0p pd=0u as=0p ps=0u w=4e+06u l=150000u
X51 out_p.t581 vp_p.t17 vdd1.t1482 vdd1 sky130_fd_pr__pfet_01v8 ad=0p pd=0u as=0p ps=0u w=4e+06u l=150000u
X52 out_p.t592 vp_p.t18 vdd1.t1481 vdd1 sky130_fd_pr__pfet_01v8 ad=0p pd=0u as=0p ps=0u w=4e+06u l=150000u
X53 out_p.t582 vp_p.t19 vdd1.t1480 vdd1 sky130_fd_pr__pfet_01v8 ad=0p pd=0u as=0p ps=0u w=4e+06u l=150000u
X54 out_n.t49 vn_n.t4 vss.t49 vss sky130_fd_pr__nfet_01v8 ad=0p pd=0u as=0p ps=0u w=4e+06u l=150000u
X55 out_p.t573 vp_p.t20 vdd1.t1479 vdd1 sky130_fd_pr__pfet_01v8 ad=0p pd=0u as=0p ps=0u w=4e+06u l=150000u
X56 out_p.t583 vp_p.t21 vdd1.t1478 vdd1 sky130_fd_pr__pfet_01v8 ad=0p pd=0u as=0p ps=0u w=4e+06u l=150000u
X57 vss.t559 vp_n.t2 out_p.t1779 vss sky130_fd_pr__nfet_01v8 ad=0p pd=0u as=0p ps=0u w=4e+06u l=150000u
X58 vdd1.t1477 vp_p.t22 out_p.t574 vdd1 sky130_fd_pr__pfet_01v8 ad=0p pd=0u as=0p ps=0u w=4e+06u l=150000u
X59 vdd1.t1476 vp_p.t23 out_p.t575 vdd1 sky130_fd_pr__pfet_01v8 ad=0p pd=0u as=0p ps=0u w=4e+06u l=150000u
X60 vdd1.t1475 vp_p.t24 out_p.t565 vdd1 sky130_fd_pr__pfet_01v8 ad=0p pd=0u as=0p ps=0u w=4e+06u l=150000u
X61 vss.t50 vn_n.t5 out_n.t50 vss sky130_fd_pr__nfet_01v8 ad=0p pd=0u as=0p ps=0u w=4e+06u l=150000u
X62 out_n.t1733 vn_p.t28 vdd2.t1471 vdd2 sky130_fd_pr__pfet_01v8 ad=0p pd=0u as=0p ps=0u w=4e+06u l=150000u
X63 out_n.t1732 vn_p.t29 vdd2.t1470 vdd2 sky130_fd_pr__pfet_01v8 ad=0p pd=0u as=0p ps=0u w=4e+06u l=150000u
X64 out_p.t84 vp_n.t3 vss.t558 vss sky130_fd_pr__nfet_01v8 ad=0p pd=0u as=0p ps=0u w=4e+06u l=150000u
X65 out_n.t1731 vn_p.t30 vdd2.t1469 vdd2 sky130_fd_pr__pfet_01v8 ad=0p pd=0u as=0p ps=0u w=4e+06u l=150000u
X66 vdd1.t1474 vp_p.t25 out_p.t566 vdd1 sky130_fd_pr__pfet_01v8 ad=0p pd=0u as=0p ps=0u w=4e+06u l=150000u
X67 out_n.t1730 vn_p.t31 vdd2.t1468 vdd2 sky130_fd_pr__pfet_01v8 ad=0p pd=0u as=0p ps=0u w=4e+06u l=150000u
X68 vdd2.t1467 vn_p.t32 out_n.t1729 vdd2 sky130_fd_pr__pfet_01v8 ad=0p pd=0u as=0p ps=0u w=4e+06u l=150000u
X69 out_p.t567 vp_p.t26 vdd1.t1473 vdd1 sky130_fd_pr__pfet_01v8 ad=0p pd=0u as=0p ps=0u w=4e+06u l=150000u
X70 vdd1.t1472 vp_p.t27 out_p.t556 vdd1 sky130_fd_pr__pfet_01v8 ad=0p pd=0u as=0p ps=0u w=4e+06u l=150000u
X71 out_n.t1728 vn_p.t33 vdd2.t1466 vdd2 sky130_fd_pr__pfet_01v8 ad=0p pd=0u as=0p ps=0u w=4e+06u l=150000u
X72 out_n.t1727 vn_p.t34 vdd2.t1465 vdd2 sky130_fd_pr__pfet_01v8 ad=0p pd=0u as=0p ps=0u w=4e+06u l=150000u
X73 out_n.t1726 vn_p.t35 vdd2.t1464 vdd2 sky130_fd_pr__pfet_01v8 ad=0p pd=0u as=0p ps=0u w=4e+06u l=150000u
X74 vdd2.t1463 vn_p.t36 out_n.t1725 vdd2 sky130_fd_pr__pfet_01v8 ad=0p pd=0u as=0p ps=0u w=4e+06u l=150000u
X75 vdd1.t1471 vp_p.t28 out_p.t568 vdd1 sky130_fd_pr__pfet_01v8 ad=0p pd=0u as=0p ps=0u w=4e+06u l=150000u
X76 vdd1.t1470 vp_p.t29 out_p.t557 vdd1 sky130_fd_pr__pfet_01v8 ad=0p pd=0u as=0p ps=0u w=4e+06u l=150000u
X77 vss.t557 vp_n.t4 out_p.t144 vss sky130_fd_pr__nfet_01v8 ad=0p pd=0u as=0p ps=0u w=4e+06u l=150000u
X78 out_p.t569 vp_p.t30 vdd1.t1469 vdd1 sky130_fd_pr__pfet_01v8 ad=0p pd=0u as=0p ps=0u w=4e+06u l=150000u
X79 vdd2.t1462 vn_p.t37 out_n.t1724 vdd2 sky130_fd_pr__pfet_01v8 ad=0p pd=0u as=0p ps=0u w=4e+06u l=150000u
X80 vss.t556 vp_n.t5 out_p.t145 vss sky130_fd_pr__nfet_01v8 ad=0p pd=0u as=0p ps=0u w=4e+06u l=150000u
X81 vdd2.t1461 vn_p.t38 out_n.t1723 vdd2 sky130_fd_pr__pfet_01v8 ad=0p pd=0u as=0p ps=0u w=4e+06u l=150000u
X82 out_n.t1722 vn_p.t39 vdd2.t1460 vdd2 sky130_fd_pr__pfet_01v8 ad=0p pd=0u as=0p ps=0u w=4e+06u l=150000u
X83 vdd2.t1459 vn_p.t40 out_n.t1721 vdd2 sky130_fd_pr__pfet_01v8 ad=0p pd=0u as=0p ps=0u w=4e+06u l=150000u
X84 vdd1.t1468 vp_p.t31 out_p.t558 vdd1 sky130_fd_pr__pfet_01v8 ad=0p pd=0u as=0p ps=0u w=4e+06u l=150000u
X85 vdd1.t1467 vp_p.t32 out_p.t548 vdd1 sky130_fd_pr__pfet_01v8 ad=0p pd=0u as=0p ps=0u w=4e+06u l=150000u
X86 out_n.t1720 vn_p.t41 vdd2.t1458 vdd2 sky130_fd_pr__pfet_01v8 ad=0p pd=0u as=0p ps=0u w=4e+06u l=150000u
X87 vdd2.t1457 vn_p.t42 out_n.t1719 vdd2 sky130_fd_pr__pfet_01v8 ad=0p pd=0u as=0p ps=0u w=4e+06u l=150000u
X88 vdd2.t1456 vn_p.t43 out_n.t1718 vdd2 sky130_fd_pr__pfet_01v8 ad=0p pd=0u as=0p ps=0u w=4e+06u l=150000u
X89 out_p.t146 vp_n.t6 vss.t555 vss sky130_fd_pr__nfet_01v8 ad=0p pd=0u as=0p ps=0u w=4e+06u l=150000u
X90 out_n.t51 vn_n.t6 vss.t51 vss sky130_fd_pr__nfet_01v8 ad=0p pd=0u as=0p ps=0u w=4e+06u l=150000u
X91 vdd1.t1466 vp_p.t33 out_p.t559 vdd1 sky130_fd_pr__pfet_01v8 ad=0p pd=0u as=0p ps=0u w=4e+06u l=150000u
X92 vdd2.t1455 vn_p.t44 out_n.t1717 vdd2 sky130_fd_pr__pfet_01v8 ad=0p pd=0u as=0p ps=0u w=4e+06u l=150000u
X93 vdd2.t1454 vn_p.t45 out_n.t1716 vdd2 sky130_fd_pr__pfet_01v8 ad=0p pd=0u as=0p ps=0u w=4e+06u l=150000u
X94 out_n.t1715 vn_p.t46 vdd2.t1453 vdd2 sky130_fd_pr__pfet_01v8 ad=0p pd=0u as=0p ps=0u w=4e+06u l=150000u
X95 vss.t554 vp_n.t7 out_p.t147 vss sky130_fd_pr__nfet_01v8 ad=0p pd=0u as=0p ps=0u w=4e+06u l=150000u
X96 out_p.t148 vp_n.t8 vss.t553 vss sky130_fd_pr__nfet_01v8 ad=0p pd=0u as=0p ps=0u w=4e+06u l=150000u
X97 vdd2.t1452 vn_p.t47 out_n.t1714 vdd2 sky130_fd_pr__pfet_01v8 ad=0p pd=0u as=0p ps=0u w=4e+06u l=150000u
X98 out_n.t1713 vn_p.t48 vdd2.t1451 vdd2 sky130_fd_pr__pfet_01v8 ad=0p pd=0u as=0p ps=0u w=4e+06u l=150000u
X99 out_p.t549 vp_p.t34 vdd1.t1465 vdd1 sky130_fd_pr__pfet_01v8 ad=0p pd=0u as=0p ps=0u w=4e+06u l=150000u
X100 vdd1.t1464 vp_p.t35 out_p.t560 vdd1 sky130_fd_pr__pfet_01v8 ad=0p pd=0u as=0p ps=0u w=4e+06u l=150000u
X101 out_p.t550 vp_p.t36 vdd1.t1463 vdd1 sky130_fd_pr__pfet_01v8 ad=0p pd=0u as=0p ps=0u w=4e+06u l=150000u
X102 out_p.t539 vp_p.t37 vdd1.t1462 vdd1 sky130_fd_pr__pfet_01v8 ad=0p pd=0u as=0p ps=0u w=4e+06u l=150000u
X103 out_n.t1712 vn_p.t49 vdd2.t1450 vdd2 sky130_fd_pr__pfet_01v8 ad=0p pd=0u as=0p ps=0u w=4e+06u l=150000u
X104 out_n.t1711 vn_p.t50 vdd2.t1449 vdd2 sky130_fd_pr__pfet_01v8 ad=0p pd=0u as=0p ps=0u w=4e+06u l=150000u
X105 vdd2.t1448 vn_p.t51 out_n.t1710 vdd2 sky130_fd_pr__pfet_01v8 ad=0p pd=0u as=0p ps=0u w=4e+06u l=150000u
X106 vdd1.t1461 vp_p.t38 out_p.t551 vdd1 sky130_fd_pr__pfet_01v8 ad=0p pd=0u as=0p ps=0u w=4e+06u l=150000u
X107 vdd2.t1447 vn_p.t52 out_n.t1709 vdd2 sky130_fd_pr__pfet_01v8 ad=0p pd=0u as=0p ps=0u w=4e+06u l=150000u
X108 vdd1.t1460 vp_p.t39 out_p.t540 vdd1 sky130_fd_pr__pfet_01v8 ad=0p pd=0u as=0p ps=0u w=4e+06u l=150000u
X109 vdd1.t1459 vp_p.t40 out_p.t552 vdd1 sky130_fd_pr__pfet_01v8 ad=0p pd=0u as=0p ps=0u w=4e+06u l=150000u
X110 vdd1.t1458 vp_p.t41 out_p.t541 vdd1 sky130_fd_pr__pfet_01v8 ad=0p pd=0u as=0p ps=0u w=4e+06u l=150000u
X111 out_p.t531 vp_p.t42 vdd1.t1457 vdd1 sky130_fd_pr__pfet_01v8 ad=0p pd=0u as=0p ps=0u w=4e+06u l=150000u
X112 vdd1.t1456 vp_p.t43 out_p.t542 vdd1 sky130_fd_pr__pfet_01v8 ad=0p pd=0u as=0p ps=0u w=4e+06u l=150000u
X113 vss.t52 vn_n.t7 out_n.t52 vss sky130_fd_pr__nfet_01v8 ad=0p pd=0u as=0p ps=0u w=4e+06u l=150000u
X114 vdd2.t1446 vn_p.t53 out_n.t1708 vdd2 sky130_fd_pr__pfet_01v8 ad=0p pd=0u as=0p ps=0u w=4e+06u l=150000u
X115 out_n.t1707 vn_p.t54 vdd2.t1445 vdd2 sky130_fd_pr__pfet_01v8 ad=0p pd=0u as=0p ps=0u w=4e+06u l=150000u
X116 vdd2.t1444 vn_p.t55 out_n.t1706 vdd2 sky130_fd_pr__pfet_01v8 ad=0p pd=0u as=0p ps=0u w=4e+06u l=150000u
X117 out_p.t532 vp_p.t44 vdd1.t1455 vdd1 sky130_fd_pr__pfet_01v8 ad=0p pd=0u as=0p ps=0u w=4e+06u l=150000u
X118 out_n.t1705 vn_p.t56 vdd2.t1443 vdd2 sky130_fd_pr__pfet_01v8 ad=0p pd=0u as=0p ps=0u w=4e+06u l=150000u
X119 out_p.t543 vp_p.t45 vdd1.t1454 vdd1 sky130_fd_pr__pfet_01v8 ad=0p pd=0u as=0p ps=0u w=4e+06u l=150000u
X120 vss.t116 vn_n.t8 out_n.t116 vss sky130_fd_pr__nfet_01v8 ad=0p pd=0u as=0p ps=0u w=4e+06u l=150000u
X121 out_n.t1704 vn_p.t57 vdd2.t1442 vdd2 sky130_fd_pr__pfet_01v8 ad=0p pd=0u as=0p ps=0u w=4e+06u l=150000u
X122 vdd1.t1453 vp_p.t46 out_p.t533 vdd1 sky130_fd_pr__pfet_01v8 ad=0p pd=0u as=0p ps=0u w=4e+06u l=150000u
X123 out_p.t522 vp_p.t47 vdd1.t1452 vdd1 sky130_fd_pr__pfet_01v8 ad=0p pd=0u as=0p ps=0u w=4e+06u l=150000u
X124 out_p.t534 vp_p.t48 vdd1.t1451 vdd1 sky130_fd_pr__pfet_01v8 ad=0p pd=0u as=0p ps=0u w=4e+06u l=150000u
X125 vdd2.t1441 vn_p.t58 out_n.t1703 vdd2 sky130_fd_pr__pfet_01v8 ad=0p pd=0u as=0p ps=0u w=4e+06u l=150000u
X126 out_n.t1702 vn_p.t59 vdd2.t1440 vdd2 sky130_fd_pr__pfet_01v8 ad=0p pd=0u as=0p ps=0u w=4e+06u l=150000u
X127 out_n.t1701 vn_p.t60 vdd2.t1439 vdd2 sky130_fd_pr__pfet_01v8 ad=0p pd=0u as=0p ps=0u w=4e+06u l=150000u
X128 vdd2.t1438 vn_p.t61 out_n.t1700 vdd2 sky130_fd_pr__pfet_01v8 ad=0p pd=0u as=0p ps=0u w=4e+06u l=150000u
X129 out_n.t1699 vn_p.t62 vdd2.t1437 vdd2 sky130_fd_pr__pfet_01v8 ad=0p pd=0u as=0p ps=0u w=4e+06u l=150000u
X130 vdd1.t1450 vp_p.t49 out_p.t523 vdd1 sky130_fd_pr__pfet_01v8 ad=0p pd=0u as=0p ps=0u w=4e+06u l=150000u
X131 out_p.t535 vp_p.t50 vdd1.t1449 vdd1 sky130_fd_pr__pfet_01v8 ad=0p pd=0u as=0p ps=0u w=4e+06u l=150000u
X132 out_n.t1698 vn_p.t63 vdd2.t1436 vdd2 sky130_fd_pr__pfet_01v8 ad=0p pd=0u as=0p ps=0u w=4e+06u l=150000u
X133 vdd1.t1448 vp_p.t51 out_p.t524 vdd1 sky130_fd_pr__pfet_01v8 ad=0p pd=0u as=0p ps=0u w=4e+06u l=150000u
X134 vdd1.t1447 vp_p.t52 out_p.t514 vdd1 sky130_fd_pr__pfet_01v8 ad=0p pd=0u as=0p ps=0u w=4e+06u l=150000u
X135 vdd2.t1435 vn_p.t64 out_n.t1697 vdd2 sky130_fd_pr__pfet_01v8 ad=0p pd=0u as=0p ps=0u w=4e+06u l=150000u
X136 out_p.t525 vp_p.t53 vdd1.t1446 vdd1 sky130_fd_pr__pfet_01v8 ad=0p pd=0u as=0p ps=0u w=4e+06u l=150000u
X137 out_p.t515 vp_p.t54 vdd1.t1445 vdd1 sky130_fd_pr__pfet_01v8 ad=0p pd=0u as=0p ps=0u w=4e+06u l=150000u
X138 out_p.t526 vp_p.t55 vdd1.t1444 vdd1 sky130_fd_pr__pfet_01v8 ad=0p pd=0u as=0p ps=0u w=4e+06u l=150000u
X139 out_n.t1696 vn_p.t65 vdd2.t1434 vdd2 sky130_fd_pr__pfet_01v8 ad=0p pd=0u as=0p ps=0u w=4e+06u l=150000u
X140 vss.t552 vp_n.t9 out_p.t149 vss sky130_fd_pr__nfet_01v8 ad=0p pd=0u as=0p ps=0u w=4e+06u l=150000u
X141 vdd1.t1443 vp_p.t56 out_p.t516 vdd1 sky130_fd_pr__pfet_01v8 ad=0p pd=0u as=0p ps=0u w=4e+06u l=150000u
X142 vdd2.t1433 vn_p.t66 out_n.t1695 vdd2 sky130_fd_pr__pfet_01v8 ad=0p pd=0u as=0p ps=0u w=4e+06u l=150000u
X143 out_p.t505 vp_p.t57 vdd1.t1442 vdd1 sky130_fd_pr__pfet_01v8 ad=0p pd=0u as=0p ps=0u w=4e+06u l=150000u
X144 out_p.t517 vp_p.t58 vdd1.t1441 vdd1 sky130_fd_pr__pfet_01v8 ad=0p pd=0u as=0p ps=0u w=4e+06u l=150000u
X145 out_p.t506 vp_p.t59 vdd1.t1440 vdd1 sky130_fd_pr__pfet_01v8 ad=0p pd=0u as=0p ps=0u w=4e+06u l=150000u
X146 vdd2.t1432 vn_p.t67 out_n.t1694 vdd2 sky130_fd_pr__pfet_01v8 ad=0p pd=0u as=0p ps=0u w=4e+06u l=150000u
X147 out_p.t518 vp_p.t60 vdd1.t1439 vdd1 sky130_fd_pr__pfet_01v8 ad=0p pd=0u as=0p ps=0u w=4e+06u l=150000u
X148 vss.t551 vp_n.t10 out_p.t150 vss sky130_fd_pr__nfet_01v8 ad=0p pd=0u as=0p ps=0u w=4e+06u l=150000u
X149 vdd1.t1438 vp_p.t61 out_p.t507 vdd1 sky130_fd_pr__pfet_01v8 ad=0p pd=0u as=0p ps=0u w=4e+06u l=150000u
X150 vdd1.t1437 vp_p.t62 out_p.t497 vdd1 sky130_fd_pr__pfet_01v8 ad=0p pd=0u as=0p ps=0u w=4e+06u l=150000u
X151 out_p.t151 vp_n.t11 vss.t550 vss sky130_fd_pr__nfet_01v8 ad=0p pd=0u as=0p ps=0u w=4e+06u l=150000u
X152 out_p.t508 vp_p.t63 vdd1.t1436 vdd1 sky130_fd_pr__pfet_01v8 ad=0p pd=0u as=0p ps=0u w=4e+06u l=150000u
X153 out_n.t117 vn_n.t9 vss.t117 vss sky130_fd_pr__nfet_01v8 ad=0p pd=0u as=0p ps=0u w=4e+06u l=150000u
X154 out_n.t1693 vn_p.t68 vdd2.t1431 vdd2 sky130_fd_pr__pfet_01v8 ad=0p pd=0u as=0p ps=0u w=4e+06u l=150000u
X155 vss.t118 vn_n.t10 out_n.t118 vss sky130_fd_pr__nfet_01v8 ad=0p pd=0u as=0p ps=0u w=4e+06u l=150000u
X156 out_n.t1692 vn_p.t69 vdd2.t1430 vdd2 sky130_fd_pr__pfet_01v8 ad=0p pd=0u as=0p ps=0u w=4e+06u l=150000u
X157 vdd2.t1429 vn_p.t70 out_n.t1691 vdd2 sky130_fd_pr__pfet_01v8 ad=0p pd=0u as=0p ps=0u w=4e+06u l=150000u
X158 out_n.t119 vn_n.t11 vss.t119 vss sky130_fd_pr__nfet_01v8 ad=0p pd=0u as=0p ps=0u w=4e+06u l=150000u
X159 out_p.t498 vp_p.t64 vdd1.t1435 vdd1 sky130_fd_pr__pfet_01v8 ad=0p pd=0u as=0p ps=0u w=4e+06u l=150000u
X160 vdd2.t1428 vn_p.t71 out_n.t1690 vdd2 sky130_fd_pr__pfet_01v8 ad=0p pd=0u as=0p ps=0u w=4e+06u l=150000u
X161 out_p.t509 vp_p.t65 vdd1.t1434 vdd1 sky130_fd_pr__pfet_01v8 ad=0p pd=0u as=0p ps=0u w=4e+06u l=150000u
X162 vdd2.t1427 vn_p.t72 out_n.t1689 vdd2 sky130_fd_pr__pfet_01v8 ad=0p pd=0u as=0p ps=0u w=4e+06u l=150000u
X163 vdd1.t1433 vp_p.t66 out_p.t499 vdd1 sky130_fd_pr__pfet_01v8 ad=0p pd=0u as=0p ps=0u w=4e+06u l=150000u
X164 out_n.t1688 vn_p.t73 vdd2.t1426 vdd2 sky130_fd_pr__pfet_01v8 ad=0p pd=0u as=0p ps=0u w=4e+06u l=150000u
X165 vdd2.t1425 vn_p.t74 out_n.t1687 vdd2 sky130_fd_pr__pfet_01v8 ad=0p pd=0u as=0p ps=0u w=4e+06u l=150000u
X166 vdd2.t1424 vn_p.t75 out_n.t1686 vdd2 sky130_fd_pr__pfet_01v8 ad=0p pd=0u as=0p ps=0u w=4e+06u l=150000u
X167 out_n.t1685 vn_p.t76 vdd2.t1423 vdd2 sky130_fd_pr__pfet_01v8 ad=0p pd=0u as=0p ps=0u w=4e+06u l=150000u
X168 vss.t549 vp_n.t12 out_p.t152 vss sky130_fd_pr__nfet_01v8 ad=0p pd=0u as=0p ps=0u w=4e+06u l=150000u
X169 vss.t77 vn_n.t12 out_n.t77 vss sky130_fd_pr__nfet_01v8 ad=0p pd=0u as=0p ps=0u w=4e+06u l=150000u
X170 out_p.t488 vp_p.t67 vdd1.t1432 vdd1 sky130_fd_pr__pfet_01v8 ad=0p pd=0u as=0p ps=0u w=4e+06u l=150000u
X171 out_n.t1684 vn_p.t77 vdd2.t1422 vdd2 sky130_fd_pr__pfet_01v8 ad=0p pd=0u as=0p ps=0u w=4e+06u l=150000u
X172 out_p.t153 vp_n.t13 vss.t548 vss sky130_fd_pr__nfet_01v8 ad=0p pd=0u as=0p ps=0u w=4e+06u l=150000u
X173 out_n.t1683 vn_p.t78 vdd2.t1421 vdd2 sky130_fd_pr__pfet_01v8 ad=0p pd=0u as=0p ps=0u w=4e+06u l=150000u
X174 vdd1.t1431 vp_p.t68 out_p.t500 vdd1 sky130_fd_pr__pfet_01v8 ad=0p pd=0u as=0p ps=0u w=4e+06u l=150000u
X175 vdd2.t1420 vn_p.t79 out_n.t1682 vdd2 sky130_fd_pr__pfet_01v8 ad=0p pd=0u as=0p ps=0u w=4e+06u l=150000u
X176 vdd1.t1430 vp_p.t69 out_p.t489 vdd1 sky130_fd_pr__pfet_01v8 ad=0p pd=0u as=0p ps=0u w=4e+06u l=150000u
X177 vdd1.t1429 vp_p.t70 out_p.t501 vdd1 sky130_fd_pr__pfet_01v8 ad=0p pd=0u as=0p ps=0u w=4e+06u l=150000u
X178 vdd1.t1428 vp_p.t71 out_p.t490 vdd1 sky130_fd_pr__pfet_01v8 ad=0p pd=0u as=0p ps=0u w=4e+06u l=150000u
X179 out_p.t480 vp_p.t72 vdd1.t1427 vdd1 sky130_fd_pr__pfet_01v8 ad=0p pd=0u as=0p ps=0u w=4e+06u l=150000u
X180 vdd1.t1426 vp_p.t73 out_p.t491 vdd1 sky130_fd_pr__pfet_01v8 ad=0p pd=0u as=0p ps=0u w=4e+06u l=150000u
X181 vdd2.t1419 vn_p.t80 out_n.t1681 vdd2 sky130_fd_pr__pfet_01v8 ad=0p pd=0u as=0p ps=0u w=4e+06u l=150000u
X182 vdd2.t1418 vn_p.t81 out_n.t1680 vdd2 sky130_fd_pr__pfet_01v8 ad=0p pd=0u as=0p ps=0u w=4e+06u l=150000u
X183 out_n.t1679 vn_p.t82 vdd2.t1417 vdd2 sky130_fd_pr__pfet_01v8 ad=0p pd=0u as=0p ps=0u w=4e+06u l=150000u
X184 out_p.t481 vp_p.t74 vdd1.t1425 vdd1 sky130_fd_pr__pfet_01v8 ad=0p pd=0u as=0p ps=0u w=4e+06u l=150000u
X185 out_p.t492 vp_p.t75 vdd1.t1424 vdd1 sky130_fd_pr__pfet_01v8 ad=0p pd=0u as=0p ps=0u w=4e+06u l=150000u
X186 vdd1.t1423 vp_p.t76 out_p.t482 vdd1 sky130_fd_pr__pfet_01v8 ad=0p pd=0u as=0p ps=0u w=4e+06u l=150000u
X187 out_p.t471 vp_p.t77 vdd1.t1422 vdd1 sky130_fd_pr__pfet_01v8 ad=0p pd=0u as=0p ps=0u w=4e+06u l=150000u
X188 out_p.t483 vp_p.t78 vdd1.t1421 vdd1 sky130_fd_pr__pfet_01v8 ad=0p pd=0u as=0p ps=0u w=4e+06u l=150000u
X189 out_n.t1678 vn_p.t83 vdd2.t1416 vdd2 sky130_fd_pr__pfet_01v8 ad=0p pd=0u as=0p ps=0u w=4e+06u l=150000u
X190 vdd2.t1415 vn_p.t84 out_n.t1677 vdd2 sky130_fd_pr__pfet_01v8 ad=0p pd=0u as=0p ps=0u w=4e+06u l=150000u
X191 out_n.t1676 vn_p.t85 vdd2.t1414 vdd2 sky130_fd_pr__pfet_01v8 ad=0p pd=0u as=0p ps=0u w=4e+06u l=150000u
X192 vdd1.t1420 vp_p.t79 out_p.t472 vdd1 sky130_fd_pr__pfet_01v8 ad=0p pd=0u as=0p ps=0u w=4e+06u l=150000u
X193 vdd2.t1413 vn_p.t86 out_n.t1675 vdd2 sky130_fd_pr__pfet_01v8 ad=0p pd=0u as=0p ps=0u w=4e+06u l=150000u
X194 out_n.t1674 vn_p.t87 vdd2.t1412 vdd2 sky130_fd_pr__pfet_01v8 ad=0p pd=0u as=0p ps=0u w=4e+06u l=150000u
X195 out_p.t154 vp_n.t14 vss.t547 vss sky130_fd_pr__nfet_01v8 ad=0p pd=0u as=0p ps=0u w=4e+06u l=150000u
X196 vdd1.t1419 vp_p.t80 out_p.t484 vdd1 sky130_fd_pr__pfet_01v8 ad=0p pd=0u as=0p ps=0u w=4e+06u l=150000u
X197 vdd1.t1418 vp_p.t81 out_p.t473 vdd1 sky130_fd_pr__pfet_01v8 ad=0p pd=0u as=0p ps=0u w=4e+06u l=150000u
X198 vdd2.t1411 vn_p.t88 out_n.t1673 vdd2 sky130_fd_pr__pfet_01v8 ad=0p pd=0u as=0p ps=0u w=4e+06u l=150000u
X199 vdd2.t1410 vn_p.t89 out_n.t1672 vdd2 sky130_fd_pr__pfet_01v8 ad=0p pd=0u as=0p ps=0u w=4e+06u l=150000u
X200 vdd1.t1417 vp_p.t82 out_p.t463 vdd1 sky130_fd_pr__pfet_01v8 ad=0p pd=0u as=0p ps=0u w=4e+06u l=150000u
X201 vdd2.t1409 vn_p.t90 out_n.t1671 vdd2 sky130_fd_pr__pfet_01v8 ad=0p pd=0u as=0p ps=0u w=4e+06u l=150000u
X202 vdd2.t1408 vn_p.t91 out_n.t1670 vdd2 sky130_fd_pr__pfet_01v8 ad=0p pd=0u as=0p ps=0u w=4e+06u l=150000u
X203 out_p.t474 vp_p.t83 vdd1.t1416 vdd1 sky130_fd_pr__pfet_01v8 ad=0p pd=0u as=0p ps=0u w=4e+06u l=150000u
X204 out_p.t464 vp_p.t84 vdd1.t1415 vdd1 sky130_fd_pr__pfet_01v8 ad=0p pd=0u as=0p ps=0u w=4e+06u l=150000u
X205 vdd1.t1414 vp_p.t85 out_p.t475 vdd1 sky130_fd_pr__pfet_01v8 ad=0p pd=0u as=0p ps=0u w=4e+06u l=150000u
X206 out_p.t465 vp_p.t86 vdd1.t1413 vdd1 sky130_fd_pr__pfet_01v8 ad=0p pd=0u as=0p ps=0u w=4e+06u l=150000u
X207 out_n.t1669 vn_p.t92 vdd2.t1407 vdd2 sky130_fd_pr__pfet_01v8 ad=0p pd=0u as=0p ps=0u w=4e+06u l=150000u
X208 vdd2.t1406 vn_p.t93 out_n.t1668 vdd2 sky130_fd_pr__pfet_01v8 ad=0p pd=0u as=0p ps=0u w=4e+06u l=150000u
X209 out_p.t454 vp_p.t87 vdd1.t1412 vdd1 sky130_fd_pr__pfet_01v8 ad=0p pd=0u as=0p ps=0u w=4e+06u l=150000u
X210 vdd2.t1405 vn_p.t94 out_n.t1667 vdd2 sky130_fd_pr__pfet_01v8 ad=0p pd=0u as=0p ps=0u w=4e+06u l=150000u
X211 vdd1.t1411 vp_p.t88 out_p.t466 vdd1 sky130_fd_pr__pfet_01v8 ad=0p pd=0u as=0p ps=0u w=4e+06u l=150000u
X212 out_p.t455 vp_p.t89 vdd1.t1410 vdd1 sky130_fd_pr__pfet_01v8 ad=0p pd=0u as=0p ps=0u w=4e+06u l=150000u
X213 vdd1.t1409 vp_p.t90 out_p.t467 vdd1 sky130_fd_pr__pfet_01v8 ad=0p pd=0u as=0p ps=0u w=4e+06u l=150000u
X214 vdd1.t1408 vp_p.t91 out_p.t456 vdd1 sky130_fd_pr__pfet_01v8 ad=0p pd=0u as=0p ps=0u w=4e+06u l=150000u
X215 out_n.t78 vn_n.t13 vss.t78 vss sky130_fd_pr__nfet_01v8 ad=0p pd=0u as=0p ps=0u w=4e+06u l=150000u
X216 vdd2.t1404 vn_p.t95 out_n.t1666 vdd2 sky130_fd_pr__pfet_01v8 ad=0p pd=0u as=0p ps=0u w=4e+06u l=150000u
X217 out_p.t155 vp_n.t15 vss.t546 vss sky130_fd_pr__nfet_01v8 ad=0p pd=0u as=0p ps=0u w=4e+06u l=150000u
X218 out_p.t446 vp_p.t92 vdd1.t1407 vdd1 sky130_fd_pr__pfet_01v8 ad=0p pd=0u as=0p ps=0u w=4e+06u l=150000u
X219 out_n.t1665 vn_p.t96 vdd2.t1403 vdd2 sky130_fd_pr__pfet_01v8 ad=0p pd=0u as=0p ps=0u w=4e+06u l=150000u
X220 vss.t79 vn_n.t14 out_n.t79 vss sky130_fd_pr__nfet_01v8 ad=0p pd=0u as=0p ps=0u w=4e+06u l=150000u
X221 vdd2.t1402 vn_p.t97 out_n.t1664 vdd2 sky130_fd_pr__pfet_01v8 ad=0p pd=0u as=0p ps=0u w=4e+06u l=150000u
X222 out_p.t457 vp_p.t93 vdd1.t1406 vdd1 sky130_fd_pr__pfet_01v8 ad=0p pd=0u as=0p ps=0u w=4e+06u l=150000u
X223 vdd1.t1405 vp_p.t94 out_p.t447 vdd1 sky130_fd_pr__pfet_01v8 ad=0p pd=0u as=0p ps=0u w=4e+06u l=150000u
X224 out_p.t458 vp_p.t95 vdd1.t1404 vdd1 sky130_fd_pr__pfet_01v8 ad=0p pd=0u as=0p ps=0u w=4e+06u l=150000u
X225 vdd2.t1401 vn_p.t98 out_n.t1663 vdd2 sky130_fd_pr__pfet_01v8 ad=0p pd=0u as=0p ps=0u w=4e+06u l=150000u
X226 vss.t545 vp_n.t16 out_p.t156 vss sky130_fd_pr__nfet_01v8 ad=0p pd=0u as=0p ps=0u w=4e+06u l=150000u
X227 out_n.t1662 vn_p.t99 vdd2.t1400 vdd2 sky130_fd_pr__pfet_01v8 ad=0p pd=0u as=0p ps=0u w=4e+06u l=150000u
X228 out_n.t1661 vn_p.t100 vdd2.t1399 vdd2 sky130_fd_pr__pfet_01v8 ad=0p pd=0u as=0p ps=0u w=4e+06u l=150000u
X229 out_n.t1660 vn_p.t101 vdd2.t1398 vdd2 sky130_fd_pr__pfet_01v8 ad=0p pd=0u as=0p ps=0u w=4e+06u l=150000u
X230 vss.t544 vp_n.t17 out_p.t157 vss sky130_fd_pr__nfet_01v8 ad=0p pd=0u as=0p ps=0u w=4e+06u l=150000u
X231 vdd2.t1397 vn_p.t102 out_n.t1659 vdd2 sky130_fd_pr__pfet_01v8 ad=0p pd=0u as=0p ps=0u w=4e+06u l=150000u
X232 out_n.t1658 vn_p.t103 vdd2.t1396 vdd2 sky130_fd_pr__pfet_01v8 ad=0p pd=0u as=0p ps=0u w=4e+06u l=150000u
X233 vss.t80 vn_n.t15 out_n.t80 vss sky130_fd_pr__nfet_01v8 ad=0p pd=0u as=0p ps=0u w=4e+06u l=150000u
X234 out_n.t1657 vn_p.t104 vdd2.t1395 vdd2 sky130_fd_pr__pfet_01v8 ad=0p pd=0u as=0p ps=0u w=4e+06u l=150000u
X235 out_n.t1656 vn_p.t105 vdd2.t1394 vdd2 sky130_fd_pr__pfet_01v8 ad=0p pd=0u as=0p ps=0u w=4e+06u l=150000u
X236 out_p.t448 vp_p.t96 vdd1.t1403 vdd1 sky130_fd_pr__pfet_01v8 ad=0p pd=0u as=0p ps=0u w=4e+06u l=150000u
X237 vdd1.t1402 vp_p.t97 out_p.t437 vdd1 sky130_fd_pr__pfet_01v8 ad=0p pd=0u as=0p ps=0u w=4e+06u l=150000u
X238 vdd1.t1401 vp_p.t98 out_p.t449 vdd1 sky130_fd_pr__pfet_01v8 ad=0p pd=0u as=0p ps=0u w=4e+06u l=150000u
X239 out_n.t1655 vn_p.t106 vdd2.t1393 vdd2 sky130_fd_pr__pfet_01v8 ad=0p pd=0u as=0p ps=0u w=4e+06u l=150000u
X240 out_p.t438 vp_p.t99 vdd1.t1400 vdd1 sky130_fd_pr__pfet_01v8 ad=0p pd=0u as=0p ps=0u w=4e+06u l=150000u
X241 out_n.t1654 vn_p.t107 vdd2.t1392 vdd2 sky130_fd_pr__pfet_01v8 ad=0p pd=0u as=0p ps=0u w=4e+06u l=150000u
X242 out_p.t158 vp_n.t18 vss.t543 vss sky130_fd_pr__nfet_01v8 ad=0p pd=0u as=0p ps=0u w=4e+06u l=150000u
X243 vss.t204 vn_n.t16 out_n.t204 vss sky130_fd_pr__nfet_01v8 ad=0p pd=0u as=0p ps=0u w=4e+06u l=150000u
X244 vss.t542 vp_n.t19 out_p.t159 vss sky130_fd_pr__nfet_01v8 ad=0p pd=0u as=0p ps=0u w=4e+06u l=150000u
X245 vdd1.t1399 vp_p.t100 out_p.t450 vdd1 sky130_fd_pr__pfet_01v8 ad=0p pd=0u as=0p ps=0u w=4e+06u l=150000u
X246 vdd2.t1391 vn_p.t108 out_n.t1653 vdd2 sky130_fd_pr__pfet_01v8 ad=0p pd=0u as=0p ps=0u w=4e+06u l=150000u
X247 out_p.t160 vp_n.t20 vss.t541 vss sky130_fd_pr__nfet_01v8 ad=0p pd=0u as=0p ps=0u w=4e+06u l=150000u
X248 vdd2.t1390 vn_p.t109 out_n.t1652 vdd2 sky130_fd_pr__pfet_01v8 ad=0p pd=0u as=0p ps=0u w=4e+06u l=150000u
X249 vdd2.t1389 vn_p.t110 out_n.t1651 vdd2 sky130_fd_pr__pfet_01v8 ad=0p pd=0u as=0p ps=0u w=4e+06u l=150000u
X250 vdd2.t1388 vn_p.t111 out_n.t1650 vdd2 sky130_fd_pr__pfet_01v8 ad=0p pd=0u as=0p ps=0u w=4e+06u l=150000u
X251 out_n.t1649 vn_p.t112 vdd2.t1387 vdd2 sky130_fd_pr__pfet_01v8 ad=0p pd=0u as=0p ps=0u w=4e+06u l=150000u
X252 out_p.t161 vp_n.t21 vss.t540 vss sky130_fd_pr__nfet_01v8 ad=0p pd=0u as=0p ps=0u w=4e+06u l=150000u
X253 vdd2.t1386 vn_p.t113 out_n.t1648 vdd2 sky130_fd_pr__pfet_01v8 ad=0p pd=0u as=0p ps=0u w=4e+06u l=150000u
X254 out_p.t162 vp_n.t22 vss.t539 vss sky130_fd_pr__nfet_01v8 ad=0p pd=0u as=0p ps=0u w=4e+06u l=150000u
X255 vdd2.t1385 vn_p.t114 out_n.t1647 vdd2 sky130_fd_pr__pfet_01v8 ad=0p pd=0u as=0p ps=0u w=4e+06u l=150000u
X256 out_n.t205 vn_n.t17 vss.t205 vss sky130_fd_pr__nfet_01v8 ad=0p pd=0u as=0p ps=0u w=4e+06u l=150000u
X257 out_p.t439 vp_p.t101 vdd1.t1398 vdd1 sky130_fd_pr__pfet_01v8 ad=0p pd=0u as=0p ps=0u w=4e+06u l=150000u
X258 vdd1.t1397 vp_p.t102 out_p.t429 vdd1 sky130_fd_pr__pfet_01v8 ad=0p pd=0u as=0p ps=0u w=4e+06u l=150000u
X259 out_p.t440 vp_p.t103 vdd1.t1396 vdd1 sky130_fd_pr__pfet_01v8 ad=0p pd=0u as=0p ps=0u w=4e+06u l=150000u
X260 vdd2.t1384 vn_p.t115 out_n.t1646 vdd2 sky130_fd_pr__pfet_01v8 ad=0p pd=0u as=0p ps=0u w=4e+06u l=150000u
X261 vdd1.t1395 vp_p.t104 out_p.t430 vdd1 sky130_fd_pr__pfet_01v8 ad=0p pd=0u as=0p ps=0u w=4e+06u l=150000u
X262 vdd1.t1394 vp_p.t105 out_p.t441 vdd1 sky130_fd_pr__pfet_01v8 ad=0p pd=0u as=0p ps=0u w=4e+06u l=150000u
X263 out_p.t431 vp_p.t106 vdd1.t1393 vdd1 sky130_fd_pr__pfet_01v8 ad=0p pd=0u as=0p ps=0u w=4e+06u l=150000u
X264 out_n.t206 vn_n.t18 vss.t206 vss sky130_fd_pr__nfet_01v8 ad=0p pd=0u as=0p ps=0u w=4e+06u l=150000u
X265 vdd2.t1383 vn_p.t116 out_n.t1645 vdd2 sky130_fd_pr__pfet_01v8 ad=0p pd=0u as=0p ps=0u w=4e+06u l=150000u
X266 vdd1.t1392 vp_p.t107 out_p.t419 vdd1 sky130_fd_pr__pfet_01v8 ad=0p pd=0u as=0p ps=0u w=4e+06u l=150000u
X267 vdd1.t1391 vp_p.t108 out_p.t432 vdd1 sky130_fd_pr__pfet_01v8 ad=0p pd=0u as=0p ps=0u w=4e+06u l=150000u
X268 out_p.t420 vp_p.t109 vdd1.t1390 vdd1 sky130_fd_pr__pfet_01v8 ad=0p pd=0u as=0p ps=0u w=4e+06u l=150000u
X269 vdd1.t1389 vp_p.t110 out_p.t433 vdd1 sky130_fd_pr__pfet_01v8 ad=0p pd=0u as=0p ps=0u w=4e+06u l=150000u
X270 vss.t207 vn_n.t19 out_n.t207 vss sky130_fd_pr__nfet_01v8 ad=0p pd=0u as=0p ps=0u w=4e+06u l=150000u
X271 vdd2.t1382 vn_p.t117 out_n.t1644 vdd2 sky130_fd_pr__pfet_01v8 ad=0p pd=0u as=0p ps=0u w=4e+06u l=150000u
X272 out_p.t421 vp_p.t111 vdd1.t1388 vdd1 sky130_fd_pr__pfet_01v8 ad=0p pd=0u as=0p ps=0u w=4e+06u l=150000u
X273 vdd1.t1387 vp_p.t112 out_p.t409 vdd1 sky130_fd_pr__pfet_01v8 ad=0p pd=0u as=0p ps=0u w=4e+06u l=150000u
X274 vdd1.t1386 vp_p.t113 out_p.t422 vdd1 sky130_fd_pr__pfet_01v8 ad=0p pd=0u as=0p ps=0u w=4e+06u l=150000u
X275 out_p.t410 vp_p.t114 vdd1.t1385 vdd1 sky130_fd_pr__pfet_01v8 ad=0p pd=0u as=0p ps=0u w=4e+06u l=150000u
X276 out_p.t423 vp_p.t115 vdd1.t1384 vdd1 sky130_fd_pr__pfet_01v8 ad=0p pd=0u as=0p ps=0u w=4e+06u l=150000u