* NGSPICE file created from integrator.ext - technology: sky130A

.subckt integrator_post vdd vi vbias vref vss vout
X0 vout.t47 vbias.t48 vdd.t95 vdd sky130_fd_pr__pfet_01v8_lvt ad=0p pd=0u as=0p ps=0u w=2e+06u l=1e+06u
X1 vdd.t94 vbias.t49 w_39347_2527.t25 vdd sky130_fd_pr__pfet_01v8_lvt ad=0p pd=0u as=0p ps=0u w=2e+06u l=1e+06u
X2 vi vout sky130_fd_pr__cap_mim_m3_1 l=1.75e+07u w=1.75e+07u
X3 a_39543_427.t47 a_39543_427.t46 vss.t31 vss sky130_fd_pr__nfet_01v8_lvt ad=0p pd=0u as=0p ps=0u w=1e+06u l=1e+06u
X4 vdd.t93 vbias.t50 vout.t46 vdd sky130_fd_pr__pfet_01v8_lvt ad=0p pd=0u as=0p ps=0u w=2e+06u l=1e+06u
X5 vss.t30 a_39543_427.t48 a_40487_515.t17 vss sky130_fd_pr__nfet_01v8_lvt ad=0p pd=0u as=0p ps=0u w=1e+06u l=1e+06u
X6 vi vout sky130_fd_pr__cap_mim_m3_1 l=0u w=0u
X7 vout.t66 a_40487_515.t33 vss.t32 vss sky130_fd_pr__nfet_01v8_lvt ad=0p pd=0u as=0p ps=0u w=1e+06u l=1e+06u
X8 vi vout sky130_fd_pr__cap_mim_m3_1 l=0u w=0u
X9 vout.t67 a_40487_515.t34 vss.t33 vss sky130_fd_pr__nfet_01v8_lvt ad=0p pd=0u as=0p ps=0u w=1e+06u l=1e+06u
X10 vout.t68 a_40487_515.t35 vss.t34 vss sky130_fd_pr__nfet_01v8_lvt ad=0p pd=0u as=0p ps=0u w=1e+06u l=1e+06u
X11 vdd.t92 vbias.t51 vout.t45 vdd sky130_fd_pr__pfet_01v8_lvt ad=0p pd=0u as=0p ps=0u w=2e+06u l=1e+06u
X12 w_39347_2527.t24 vbias.t52 vdd.t91 vdd sky130_fd_pr__pfet_01v8_lvt ad=0p pd=0u as=0p ps=0u w=2e+06u l=1e+06u
X13 vdd.t90 vbias.t53 vout.t44 vdd sky130_fd_pr__pfet_01v8_lvt ad=0p pd=0u as=0p ps=0u w=2e+06u l=1e+06u
X14 vss.t35 a_40487_515.t36 vout.t69 vss sky130_fd_pr__nfet_01v8_lvt ad=0p pd=0u as=0p ps=0u w=1e+06u l=1e+06u
X15 vi vout sky130_fd_pr__cap_mim_m3_1 l=1.75e+07u w=1.75e+07u
X16 a_40487_515.t0 vref.t0 w_39347_2527.t0 w_39347_2527# sky130_fd_pr__pfet_01v8_lvt ad=0p pd=0u as=0p ps=0u w=4e+06u l=1e+06u
X17 w_39347_2527.t1 vref.t1 a_40487_515.t1 w_39347_2527# sky130_fd_pr__pfet_01v8_lvt ad=0p pd=0u as=0p ps=0u w=4e+06u l=1e+06u
X18 a_39543_427.t45 a_39543_427.t44 vss.t29 vss sky130_fd_pr__nfet_01v8_lvt ad=0p pd=0u as=0p ps=0u w=1e+06u l=1e+06u
X19 vout.t70 a_40487_515.t37 vss.t36 vss sky130_fd_pr__nfet_01v8_lvt ad=0p pd=0u as=0p ps=0u w=1e+06u l=1e+06u
X20 vdd.t89 vbias.t54 w_39347_2527.t23 vdd sky130_fd_pr__pfet_01v8_lvt ad=0p pd=0u as=0p ps=0u w=2e+06u l=1e+06u
X21 vout.t43 vbias.t55 vdd.t88 vdd sky130_fd_pr__pfet_01v8_lvt ad=0p pd=0u as=0p ps=0u w=2e+06u l=1e+06u
X22 vout.t71 a_40487_515.t38 vss.t37 vss sky130_fd_pr__nfet_01v8_lvt ad=0p pd=0u as=0p ps=0u w=1e+06u l=1e+06u
X23 vss.t38 a_40487_515.t39 vout.t72 vss sky130_fd_pr__nfet_01v8_lvt ad=0p pd=0u as=0p ps=0u w=1e+06u l=1e+06u
X24 w_39347_2527.t54 vi.t0 a_39543_427.t15 w_39347_2527# sky130_fd_pr__pfet_01v8_lvt ad=0p pd=0u as=0p ps=0u w=4e+06u l=1e+06u
X25 vout.t73 a_40487_515.t40 vss.t39 vss sky130_fd_pr__nfet_01v8_lvt ad=0p pd=0u as=0p ps=0u w=1e+06u l=1e+06u
X26 vdd.t87 vbias.t56 vout.t42 vdd sky130_fd_pr__pfet_01v8_lvt ad=0p pd=0u as=0p ps=0u w=2e+06u l=1e+06u
X27 vss.t28 a_39543_427.t42 a_39543_427.t43 vss sky130_fd_pr__nfet_01v8_lvt ad=0p pd=0u as=0p ps=0u w=1e+06u l=1e+06u
X28 vi vout sky130_fd_pr__cap_mim_m3_1 l=0u w=0u
X29 vi vout sky130_fd_pr__cap_mim_m3_1 l=0u w=0u
X30 w_39347_2527.t22 vbias.t57 vdd.t86 vdd sky130_fd_pr__pfet_01v8_lvt ad=0p pd=0u as=0p ps=0u w=2e+06u l=1e+06u
X31 vdd.t85 vbias.t58 vout.t41 vdd sky130_fd_pr__pfet_01v8_lvt ad=0p pd=0u as=0p ps=0u w=2e+06u l=1e+06u
X32 vdd.t84 vbias.t59 vout.t40 vdd sky130_fd_pr__pfet_01v8_lvt ad=0p pd=0u as=0p ps=0u w=2e+06u l=1e+06u
X33 vdd.t83 vbias.t46 vbias.t47 vdd sky130_fd_pr__pfet_01v8_lvt ad=0p pd=0u as=0p ps=0u w=2e+06u l=1e+06u
X34 vss.t40 a_40487_515.t41 vout.t74 vss sky130_fd_pr__nfet_01v8_lvt ad=0p pd=0u as=0p ps=0u w=1e+06u l=1e+06u
X35 vi vout sky130_fd_pr__cap_mim_m3_1 l=1.75e+07u w=1.75e+07u
X36 vout.t75 a_40487_515.t42 vss.t41 vss sky130_fd_pr__nfet_01v8_lvt ad=0p pd=0u as=0p ps=0u w=1e+06u l=1e+06u
X37 a_39543_427.t14 vi.t1 w_39347_2527.t55 w_39347_2527# sky130_fd_pr__pfet_01v8_lvt ad=0p pd=0u as=0p ps=0u w=4e+06u l=1e+06u
X38 vss.t42 a_40487_515.t43 vout.t76 vss sky130_fd_pr__nfet_01v8_lvt ad=0p pd=0u as=0p ps=0u w=1e+06u l=1e+06u
X39 vout.t77 a_40487_515.t44 vss.t43 vss sky130_fd_pr__nfet_01v8_lvt ad=0p pd=0u as=0p ps=0u w=1e+06u l=1e+06u
X40 w_39347_2527.t27 vi.t2 a_39543_427.t13 w_39347_2527# sky130_fd_pr__pfet_01v8_lvt ad=0p pd=0u as=0p ps=0u w=4e+06u l=1e+06u
X41 vss.t27 a_39543_427.t40 a_39543_427.t41 vss sky130_fd_pr__nfet_01v8_lvt ad=0p pd=0u as=0p ps=0u w=1e+06u l=1e+06u
X42 vi vout sky130_fd_pr__cap_mim_m3_1 l=0u w=0u
X43 w_39347_2527.t21 vbias.t60 vdd.t82 vdd sky130_fd_pr__pfet_01v8_lvt ad=0p pd=0u as=0p ps=0u w=2e+06u l=1e+06u
X44 a_39543_427.t39 a_39543_427.t38 vss.t26 vss sky130_fd_pr__nfet_01v8_lvt ad=0p pd=0u as=0p ps=0u w=1e+06u l=1e+06u
X45 w_39347_2527.t20 vbias.t61 vdd.t81 vdd sky130_fd_pr__pfet_01v8_lvt ad=0p pd=0u as=0p ps=0u w=2e+06u l=1e+06u
X46 vdd.t80 vbias.t62 vout.t39 vdd sky130_fd_pr__pfet_01v8_lvt ad=0p pd=0u as=0p ps=0u w=2e+06u l=1e+06u
X47 vdd.t79 vbias.t63 vout.t38 vdd sky130_fd_pr__pfet_01v8_lvt ad=0p pd=0u as=0p ps=0u w=2e+06u l=1e+06u
X48 a_40487_515.t16 a_39543_427.t49 vss.t25 vss sky130_fd_pr__nfet_01v8_lvt ad=0p pd=0u as=0p ps=0u w=1e+06u l=1e+06u
X49 vout.t37 vbias.t64 vdd.t78 vdd sky130_fd_pr__pfet_01v8_lvt ad=0p pd=0u as=0p ps=0u w=2e+06u l=1e+06u
X50 vbias.t45 vbias.t44 vdd.t77 vdd sky130_fd_pr__pfet_01v8_lvt ad=0p pd=0u as=0p ps=0u w=2e+06u l=1e+06u
X51 vout.t78 a_40487_515.t45 vss.t44 vss sky130_fd_pr__nfet_01v8_lvt ad=0p pd=0u as=0p ps=0u w=1e+06u l=1e+06u
X52 vss.t45 a_40487_515.t46 vout.t79 vss sky130_fd_pr__nfet_01v8_lvt ad=0p pd=0u as=0p ps=0u w=1e+06u l=1e+06u
X53 vdd.t76 vbias.t42 vbias.t43 vdd sky130_fd_pr__pfet_01v8_lvt ad=0p pd=0u as=0p ps=0u w=2e+06u l=1e+06u
X54 vdd.t75 vbias.t65 w_39347_2527.t19 vdd sky130_fd_pr__pfet_01v8_lvt ad=0p pd=0u as=0p ps=0u w=2e+06u l=1e+06u
X55 vout.t36 vbias.t66 vdd.t74 vdd sky130_fd_pr__pfet_01v8_lvt ad=0p pd=0u as=0p ps=0u w=2e+06u l=1e+06u
X56 vss.t24 a_39543_427.t50 a_40487_515.t15 vss sky130_fd_pr__nfet_01v8_lvt ad=0p pd=0u as=0p ps=0u w=1e+06u l=1e+06u
X57 vi vout sky130_fd_pr__cap_mim_m3_1 l=1.75e+07u w=1.75e+07u
X58 vout.t80 a_40487_515.t47 vss.t46 vss sky130_fd_pr__nfet_01v8_lvt ad=0p pd=0u as=0p ps=0u w=1e+06u l=1e+06u
X59 vbias.t41 vbias.t40 vdd.t73 vdd sky130_fd_pr__pfet_01v8_lvt ad=0p pd=0u as=0p ps=0u w=2e+06u l=1e+06u
X60 a_40487_515.t19 vref.t2 w_39347_2527.t40 w_39347_2527# sky130_fd_pr__pfet_01v8_lvt ad=0p pd=0u as=0p ps=0u w=4e+06u l=1e+06u
X61 vss.t47 a_40487_515.t48 vout.t81 vss sky130_fd_pr__nfet_01v8_lvt ad=0p pd=0u as=0p ps=0u w=1e+06u l=1e+06u
X62 vdd.t72 vbias.t38 vbias.t39 vdd sky130_fd_pr__pfet_01v8_lvt ad=0p pd=0u as=0p ps=0u w=2e+06u l=1e+06u
X63 vi vout sky130_fd_pr__cap_mim_m3_1 l=0u w=0u
X64 w_39347_2527.t41 vref.t3 a_40487_515.t20 w_39347_2527# sky130_fd_pr__pfet_01v8_lvt ad=0p pd=0u as=0p ps=0u w=4e+06u l=1e+06u
X65 vss.t48 a_40487_515.t49 vout.t82 vss sky130_fd_pr__nfet_01v8_lvt ad=0p pd=0u as=0p ps=0u w=1e+06u l=1e+06u
X66 vdd.t71 vbias.t67 vout.t35 vdd sky130_fd_pr__pfet_01v8_lvt ad=0p pd=0u as=0p ps=0u w=2e+06u l=1e+06u
X67 vi vout sky130_fd_pr__cap_mim_m3_1 l=1.75e+07u w=1.75e+07u
X68 vss.t23 a_39543_427.t51 a_40487_515.t14 vss sky130_fd_pr__nfet_01v8_lvt ad=0p pd=0u as=0p ps=0u w=1e+06u l=1e+06u
X69 vdd.t70 vbias.t36 vbias.t37 vdd sky130_fd_pr__pfet_01v8_lvt ad=0p pd=0u as=0p ps=0u w=2e+06u l=1e+06u
X70 vbias.t35 vbias.t34 vdd.t69 vdd sky130_fd_pr__pfet_01v8_lvt ad=0p pd=0u as=0p ps=0u w=2e+06u l=1e+06u
X71 a_40487_515.t21 vref.t4 w_39347_2527.t42 w_39347_2527# sky130_fd_pr__pfet_01v8_lvt ad=0p pd=0u as=0p ps=0u w=4e+06u l=1e+06u
X72 vss.t49 a_40487_515.t50 vout.t83 vss sky130_fd_pr__nfet_01v8_lvt ad=0p pd=0u as=0p ps=0u w=1e+06u l=1e+06u
X73 w_39347_2527.t43 vref.t5 a_40487_515.t22 w_39347_2527# sky130_fd_pr__pfet_01v8_lvt ad=0p pd=0u as=0p ps=0u w=4e+06u l=1e+06u
X74 vdd.t68 vbias.t68 w_39347_2527.t18 vdd sky130_fd_pr__pfet_01v8_lvt ad=0p pd=0u as=0p ps=0u w=2e+06u l=1e+06u
X75 vout.t34 vbias.t69 vdd.t67 vdd sky130_fd_pr__pfet_01v8_lvt ad=0p pd=0u as=0p ps=0u w=2e+06u l=1e+06u
X76 vdd.t66 vbias.t70 w_39347_2527.t17 vdd sky130_fd_pr__pfet_01v8_lvt ad=0p pd=0u as=0p ps=0u w=2e+06u l=1e+06u
X77 vbias.t33 vbias.t32 vdd.t65 vdd sky130_fd_pr__pfet_01v8_lvt ad=0p pd=0u as=0p ps=0u w=2e+06u l=1e+06u
X78 vss.t50 a_40487_515.t51 vout.t84 vss sky130_fd_pr__nfet_01v8_lvt ad=0p pd=0u as=0p ps=0u w=1e+06u l=1e+06u
X79 vss.t22 a_39543_427.t36 a_39543_427.t37 vss sky130_fd_pr__nfet_01v8_lvt ad=0p pd=0u as=0p ps=0u w=1e+06u l=1e+06u
X80 vss.t51 a_40487_515.t52 vout.t85 vss sky130_fd_pr__nfet_01v8_lvt ad=0p pd=0u as=0p ps=0u w=1e+06u l=1e+06u
X81 vout.t86 a_40487_515.t53 vss.t52 vss sky130_fd_pr__nfet_01v8_lvt ad=0p pd=0u as=0p ps=0u w=1e+06u l=1e+06u
X82 w_39347_2527.t28 vi.t3 a_39543_427.t12 w_39347_2527# sky130_fd_pr__pfet_01v8_lvt ad=0p pd=0u as=0p ps=0u w=4e+06u l=1e+06u
X83 a_43139_4361# vout sky130_fd_pr__cap_mim_m3_1 l=3e+07u w=1.4e+07u
X84 w_39347_2527.t29 vi.t4 a_39543_427.t11 w_39347_2527# sky130_fd_pr__pfet_01v8_lvt ad=0p pd=0u as=0p ps=0u w=4e+06u l=1e+06u
X85 vi vout sky130_fd_pr__cap_mim_m3_1 l=0u w=0u
X86 vss.t53 a_40487_515.t54 vout.t87 vss sky130_fd_pr__nfet_01v8_lvt ad=0p pd=0u as=0p ps=0u w=1e+06u l=1e+06u
X87 a_40487_515.t13 a_39543_427.t52 vss.t21 vss sky130_fd_pr__nfet_01v8_lvt ad=0p pd=0u as=0p ps=0u w=1e+06u l=1e+06u
X88 vbias.t31 vbias.t30 vdd.t64 vdd sky130_fd_pr__pfet_01v8_lvt ad=0p pd=0u as=0p ps=0u w=2e+06u l=1e+06u
X89 vi vout sky130_fd_pr__cap_mim_m3_1 l=0u w=0u
X90 a_39543_427.t10 vi.t5 w_39347_2527.t30 w_39347_2527# sky130_fd_pr__pfet_01v8_lvt ad=0p pd=0u as=0p ps=0u w=4e+06u l=1e+06u
X91 vout.t33 vbias.t71 vdd.t63 vdd sky130_fd_pr__pfet_01v8_lvt ad=0p pd=0u as=0p ps=0u w=2e+06u l=1e+06u
X92 vbias.t29 vbias.t28 vdd.t62 vdd sky130_fd_pr__pfet_01v8_lvt ad=0p pd=0u as=0p ps=0u w=2e+06u l=1e+06u
X93 vss.t20 a_39543_427.t53 a_40487_515.t12 vss sky130_fd_pr__nfet_01v8_lvt ad=0p pd=0u as=0p ps=0u w=1e+06u l=1e+06u
X94 vout.t32 vbias.t72 vdd.t61 vdd sky130_fd_pr__pfet_01v8_lvt ad=0p pd=0u as=0p ps=0u w=2e+06u l=1e+06u
X95 vdd.t60 vbias.t73 w_39347_2527.t16 vdd sky130_fd_pr__pfet_01v8_lvt ad=0p pd=0u as=0p ps=0u w=2e+06u l=1e+06u
X96 vdd.t59 vbias.t26 vbias.t27 vdd sky130_fd_pr__pfet_01v8_lvt ad=0p pd=0u as=0p ps=0u w=2e+06u l=1e+06u
X97 a_40487_515.t11 a_39543_427.t54 vss.t19 vss sky130_fd_pr__nfet_01v8_lvt ad=0p pd=0u as=0p ps=0u w=1e+06u l=1e+06u
X98 vi vout sky130_fd_pr__cap_mim_m3_1 l=1.75e+07u w=1.75e+07u
X99 vss.t54 a_40487_515.t55 vout.t88 vss sky130_fd_pr__nfet_01v8_lvt ad=0p pd=0u as=0p ps=0u w=1e+06u l=1e+06u
X100 vss.t55 a_40487_515.t56 vout.t89 vss sky130_fd_pr__nfet_01v8_lvt ad=0p pd=0u as=0p ps=0u w=1e+06u l=1e+06u
X101 vout.t31 vbias.t74 vdd.t58 vdd sky130_fd_pr__pfet_01v8_lvt ad=0p pd=0u as=0p ps=0u w=2e+06u l=1e+06u
X102 vdd.t57 vbias.t75 vout.t30 vdd sky130_fd_pr__pfet_01v8_lvt ad=0p pd=0u as=0p ps=0u w=2e+06u l=1e+06u
X103 vss.t56 a_40487_515.t57 vout.t90 vss sky130_fd_pr__nfet_01v8_lvt ad=0p pd=0u as=0p ps=0u w=1e+06u l=1e+06u
X104 vout.t91 a_40487_515.t58 vss.t57 vss sky130_fd_pr__nfet_01v8_lvt ad=0p pd=0u as=0p ps=0u w=1e+06u l=1e+06u
X105 w_39347_2527.t15 vbias.t76 vdd.t56 vdd sky130_fd_pr__pfet_01v8_lvt ad=0p pd=0u as=0p ps=0u w=2e+06u l=1e+06u
X106 vbias.t25 vbias.t24 vdd.t55 vdd sky130_fd_pr__pfet_01v8_lvt ad=0p pd=0u as=0p ps=0u w=2e+06u l=1e+06u
X107 a_43139_4361# vout sky130_fd_pr__cap_mim_m3_1 l=1.4e+07u w=3e+07u
X108 a_40487_515.t10 a_39543_427.t55 vss.t18 vss sky130_fd_pr__nfet_01v8_lvt ad=0p pd=0u as=0p ps=0u w=1e+06u l=1e+06u
X109 vout.t29 vbias.t77 vdd.t54 vdd sky130_fd_pr__pfet_01v8_lvt ad=0p pd=0u as=0p ps=0u w=2e+06u l=1e+06u
X110 vout.t92 a_40487_515.t59 vss.t58 vss sky130_fd_pr__nfet_01v8_lvt ad=0p pd=0u as=0p ps=0u w=1e+06u l=1e+06u
X111 vdd.t53 vbias.t22 vbias.t23 vdd sky130_fd_pr__pfet_01v8_lvt ad=0p pd=0u as=0p ps=0u w=2e+06u l=1e+06u
X112 vdd.t52 vbias.t78 w_39347_2527.t14 vdd sky130_fd_pr__pfet_01v8_lvt ad=0p pd=0u as=0p ps=0u w=2e+06u l=1e+06u
X113 a_40487_515.t23 vref.t6 w_39347_2527.t44 w_39347_2527# sky130_fd_pr__pfet_01v8_lvt ad=0p pd=0u as=0p ps=0u w=4e+06u l=1e+06u
X114 vi vout sky130_fd_pr__cap_mim_m3_1 l=1.75e+07u w=1.75e+07u
X115 vout.t28 vbias.t79 vdd.t51 vdd sky130_fd_pr__pfet_01v8_lvt ad=0p pd=0u as=0p ps=0u w=2e+06u l=1e+06u
X116 vss.t17 a_39543_427.t34 a_39543_427.t35 vss sky130_fd_pr__nfet_01v8_lvt ad=0p pd=0u as=0p ps=0u w=1e+06u l=1e+06u
X117 vout.t27 vbias.t80 vdd.t50 vdd sky130_fd_pr__pfet_01v8_lvt ad=0p pd=0u as=0p ps=0u w=2e+06u l=1e+06u
X118 vout.t93 a_40487_515.t60 vss.t59 vss sky130_fd_pr__nfet_01v8_lvt ad=0p pd=0u as=0p ps=0u w=1e+06u l=1e+06u
X119 vdd.t49 vbias.t81 vout.t26 vdd sky130_fd_pr__pfet_01v8_lvt ad=0p pd=0u as=0p ps=0u w=2e+06u l=1e+06u
X120 vdd.t48 vbias.t82 vout.t25 vdd sky130_fd_pr__pfet_01v8_lvt ad=0p pd=0u as=0p ps=0u w=2e+06u l=1e+06u
X121 w_39347_2527.t45 vref.t7 a_40487_515.t24 w_39347_2527# sky130_fd_pr__pfet_01v8_lvt ad=0p pd=0u as=0p ps=0u w=4e+06u l=1e+06u
X122 vss.t16 a_39543_427.t32 a_39543_427.t33 vss sky130_fd_pr__nfet_01v8_lvt ad=0p pd=0u as=0p ps=0u w=1e+06u l=1e+06u
X123 vss.t60 a_40487_515.t61 vout.t94 vss sky130_fd_pr__nfet_01v8_lvt ad=0p pd=0u as=0p ps=0u w=1e+06u l=1e+06u
X124 w_39347_2527.t31 vi.t6 a_39543_427.t9 w_39347_2527# sky130_fd_pr__pfet_01v8_lvt ad=0p pd=0u as=0p ps=0u w=4e+06u l=1e+06u
X125 vi vout sky130_fd_pr__cap_mim_m3_1 l=1.75e+07u w=1.75e+07u
X126 a_40487_515.t25 vref.t8 w_39347_2527.t46 w_39347_2527# sky130_fd_pr__pfet_01v8_lvt ad=0p pd=0u as=0p ps=0u w=4e+06u l=1e+06u
X127 a_39543_427.t31 a_39543_427.t30 vss.t15 vss sky130_fd_pr__nfet_01v8_lvt ad=0p pd=0u as=0p ps=0u w=1e+06u l=1e+06u
X128 vout.t95 a_40487_515.t62 vss.t61 vss sky130_fd_pr__nfet_01v8_lvt ad=0p pd=0u as=0p ps=0u w=1e+06u l=1e+06u
X129 vout.t24 vbias.t83 vdd.t47 vdd sky130_fd_pr__pfet_01v8_lvt ad=0p pd=0u as=0p ps=0u w=2e+06u l=1e+06u
X130 vdd.t46 vbias.t84 w_39347_2527.t13 vdd sky130_fd_pr__pfet_01v8_lvt ad=0p pd=0u as=0p ps=0u w=2e+06u l=1e+06u
X131 vdd.t45 vbias.t85 vout.t23 vdd sky130_fd_pr__pfet_01v8_lvt ad=0p pd=0u as=0p ps=0u w=2e+06u l=1e+06u
X132 vout.t22 vbias.t86 vdd.t44 vdd sky130_fd_pr__pfet_01v8_lvt ad=0p pd=0u as=0p ps=0u w=2e+06u l=1e+06u
X133 vi vout sky130_fd_pr__cap_mim_m3_1 l=1.75e+07u w=1.75e+07u
X134 w_39347_2527.t12 vbias.t87 vdd.t43 vdd sky130_fd_pr__pfet_01v8_lvt ad=0p pd=0u as=0p ps=0u w=2e+06u l=1e+06u
X135 a_39543_427.t8 vi.t7 w_39347_2527.t32 w_39347_2527# sky130_fd_pr__pfet_01v8_lvt ad=0p pd=0u as=0p ps=0u w=4e+06u l=1e+06u
X136 vout.t96 a_40487_515.t63 vss.t62 vss sky130_fd_pr__nfet_01v8_lvt ad=0p pd=0u as=0p ps=0u w=1e+06u l=1e+06u
X137 vout.t97 a_40487_515.t64 vss.t63 vss sky130_fd_pr__nfet_01v8_lvt ad=0p pd=0u as=0p ps=0u w=1e+06u l=1e+06u
X138 vdd.t42 vbias.t88 vout.t21 vdd sky130_fd_pr__pfet_01v8_lvt ad=0p pd=0u as=0p ps=0u w=2e+06u l=1e+06u
X139 w_39347_2527.t11 vbias.t89 vdd.t41 vdd sky130_fd_pr__pfet_01v8_lvt ad=0p pd=0u as=0p ps=0u w=2e+06u l=1e+06u
X140 vdd.t40 vbias.t90 vout.t20 vdd sky130_fd_pr__pfet_01v8_lvt ad=0p pd=0u as=0p ps=0u w=2e+06u l=1e+06u
X141 vss.t64 a_40487_515.t65 vout.t98 vss sky130_fd_pr__nfet_01v8_lvt ad=0p pd=0u as=0p ps=0u w=1e+06u l=1e+06u
X142 w_39347_2527.t33 vi.t8 a_39543_427.t7 w_39347_2527# sky130_fd_pr__pfet_01v8_lvt ad=0p pd=0u as=0p ps=0u w=4e+06u l=1e+06u
X143 vout.t19 vbias.t91 vdd.t39 vdd sky130_fd_pr__pfet_01v8_lvt ad=0p pd=0u as=0p ps=0u w=2e+06u l=1e+06u
X144 a_39543_427.t6 vi.t9 w_39347_2527.t34 w_39347_2527# sky130_fd_pr__pfet_01v8_lvt ad=0p pd=0u as=0p ps=0u w=4e+06u l=1e+06u
X145 vout.t99 a_40487_515.t66 vss.t65 vss sky130_fd_pr__nfet_01v8_lvt ad=0p pd=0u as=0p ps=0u w=1e+06u l=1e+06u
X146 vdd.t38 vbias.t92 w_39347_2527.t10 vdd sky130_fd_pr__pfet_01v8_lvt ad=0p pd=0u as=0p ps=0u w=2e+06u l=1e+06u
X147 vss.t14 a_39543_427.t28 a_39543_427.t29 vss sky130_fd_pr__nfet_01v8_lvt ad=0p pd=0u as=0p ps=0u w=1e+06u l=1e+06u
X148 vi vout sky130_fd_pr__cap_mim_m3_1 l=0u w=0u
X149 vout.t100 a_40487_515.t67 vss.t66 vss sky130_fd_pr__nfet_01v8_lvt ad=0p pd=0u as=0p ps=0u w=1e+06u l=1e+06u
X150 vi vout sky130_fd_pr__cap_mim_m3_1 l=0u w=0u
X151 vss.t13 a_39543_427.t56 a_40487_515.t9 vss sky130_fd_pr__nfet_01v8_lvt ad=0p pd=0u as=0p ps=0u w=1e+06u l=1e+06u
X152 vdd.t37 vbias.t93 vout.t18 vdd sky130_fd_pr__pfet_01v8_lvt ad=0p pd=0u as=0p ps=0u w=2e+06u l=1e+06u
X153 w_39347_2527.t9 vbias.t94 vdd.t36 vdd sky130_fd_pr__pfet_01v8_lvt ad=0p pd=0u as=0p ps=0u w=2e+06u l=1e+06u
X154 vdd.t35 vbias.t20 vbias.t21 vdd sky130_fd_pr__pfet_01v8_lvt ad=0p pd=0u as=0p ps=0u w=2e+06u l=1e+06u
X155 vss.t67 a_40487_515.t68 vout.t101 vss sky130_fd_pr__nfet_01v8_lvt ad=0p pd=0u as=0p ps=0u w=1e+06u l=1e+06u
X156 a_40487_515.t8 a_39543_427.t57 vss.t12 vss sky130_fd_pr__nfet_01v8_lvt ad=0p pd=0u as=0p ps=0u w=1e+06u l=1e+06u
X157 w_39347_2527.t8 vbias.t95 vdd.t34 vdd sky130_fd_pr__pfet_01v8_lvt ad=0p pd=0u as=0p ps=0u w=2e+06u l=1e+06u
X158 vdd.t33 vbias.t96 vout.t17 vdd sky130_fd_pr__pfet_01v8_lvt ad=0p pd=0u as=0p ps=0u w=2e+06u l=1e+06u
X159 vdd.t32 vbias.t97 vout.t16 vdd sky130_fd_pr__pfet_01v8_lvt ad=0p pd=0u as=0p ps=0u w=2e+06u l=1e+06u
X160 vss.t11 a_39543_427.t26 a_39543_427.t27 vss sky130_fd_pr__nfet_01v8_lvt ad=0p pd=0u as=0p ps=0u w=1e+06u l=1e+06u
X161 vi vout sky130_fd_pr__cap_mim_m3_1 l=1.75e+07u w=1.75e+07u
X162 w_39347_2527.t47 vref.t9 a_40487_515.t26 w_39347_2527# sky130_fd_pr__pfet_01v8_lvt ad=0p pd=0u as=0p ps=0u w=4e+06u l=1e+06u
X163 vout.t102 a_40487_515.t69 vss.t68 vss sky130_fd_pr__nfet_01v8_lvt ad=0p pd=0u as=0p ps=0u w=1e+06u l=1e+06u
X164 vout.t103 a_40487_515.t70 vss.t69 vss sky130_fd_pr__nfet_01v8_lvt ad=0p pd=0u as=0p ps=0u w=1e+06u l=1e+06u
X165 vout.t15 vbias.t98 vdd.t31 vdd sky130_fd_pr__pfet_01v8_lvt ad=0p pd=0u as=0p ps=0u w=2e+06u l=1e+06u
X166 vdd.t30 vbias.t18 vbias.t19 vdd sky130_fd_pr__pfet_01v8_lvt ad=0p pd=0u as=0p ps=0u w=2e+06u l=1e+06u
X167 vout.t104 a_40487_515.t71 vss.t70 vss sky130_fd_pr__nfet_01v8_lvt ad=0p pd=0u as=0p ps=0u w=1e+06u l=1e+06u
X168 a_40487_515.t27 vref.t10 w_39347_2527.t48 w_39347_2527# sky130_fd_pr__pfet_01v8_lvt ad=0p pd=0u as=0p ps=0u w=4e+06u l=1e+06u
X169 a_39543_427.t25 a_39543_427.t24 vss.t10 vss sky130_fd_pr__nfet_01v8_lvt ad=0p pd=0u as=0p ps=0u w=1e+06u l=1e+06u
X170 vout.t105 a_40487_515.t72 vss.t71 vss sky130_fd_pr__nfet_01v8_lvt ad=0p pd=0u as=0p ps=0u w=1e+06u l=1e+06u
X171 vss.t72 a_40487_515.t73 vout.t106 vss sky130_fd_pr__nfet_01v8_lvt ad=0p pd=0u as=0p ps=0u w=1e+06u l=1e+06u
X172 w_39347_2527.t7 vbias.t99 vdd.t29 vdd sky130_fd_pr__pfet_01v8_lvt ad=0p pd=0u as=0p ps=0u w=2e+06u l=1e+06u
X173 vdd.t28 vbias.t16 vbias.t17 vdd sky130_fd_pr__pfet_01v8_lvt ad=0p pd=0u as=0p ps=0u w=2e+06u l=1e+06u
X174 w_39347_2527.t49 vref.t11 a_40487_515.t28 w_39347_2527# sky130_fd_pr__pfet_01v8_lvt ad=0p pd=0u as=0p ps=0u w=4e+06u l=1e+06u
X175 vdd.t27 vbias.t100 vout.t14 vdd sky130_fd_pr__pfet_01v8_lvt ad=0p pd=0u as=0p ps=0u w=2e+06u l=1e+06u
X176 vi vout sky130_fd_pr__cap_mim_m3_1 l=1.75e+07u w=1.75e+07u
X177 a_39543_427.t23 a_39543_427.t22 vss.t9 vss sky130_fd_pr__nfet_01v8_lvt ad=0p pd=0u as=0p ps=0u w=1e+06u l=1e+06u
X178 vdd.t26 vbias.t101 vout.t13 vdd sky130_fd_pr__pfet_01v8_lvt ad=0p pd=0u as=0p ps=0u w=2e+06u l=1e+06u
X179 vbias.t15 vbias.t14 vdd.t25 vdd sky130_fd_pr__pfet_01v8_lvt ad=0p pd=0u as=0p ps=0u w=2e+06u l=1e+06u
X180 w_39347_2527.t35 vi.t10 a_39543_427.t5 w_39347_2527# sky130_fd_pr__pfet_01v8_lvt ad=0p pd=0u as=0p ps=0u w=4e+06u l=1e+06u
X181 vi vout sky130_fd_pr__cap_mim_m3_1 l=1.75e+07u w=1.75e+07u
X182 vss.t8 a_39543_427.t20 a_39543_427.t21 vss sky130_fd_pr__nfet_01v8_lvt ad=0p pd=0u as=0p ps=0u w=1e+06u l=1e+06u
X183 vi vout sky130_fd_pr__cap_mim_m3_1 l=0u w=0u
X184 vdd.t24 vbias.t12 vbias.t13 vdd sky130_fd_pr__pfet_01v8_lvt ad=0p pd=0u as=0p ps=0u w=2e+06u l=1e+06u
X185 vout.t107 a_40487_515.t74 vss.t73 vss sky130_fd_pr__nfet_01v8_lvt ad=0p pd=0u as=0p ps=0u w=1e+06u l=1e+06u
X186 vout.t12 vbias.t102 vdd.t23 vdd sky130_fd_pr__pfet_01v8_lvt ad=0p pd=0u as=0p ps=0u w=2e+06u l=1e+06u
X187 vout.t108 a_40487_515.t75 vss.t74 vss sky130_fd_pr__nfet_01v8_lvt ad=0p pd=0u as=0p ps=0u w=1e+06u l=1e+06u
X188 vss.t75 a_40487_515.t76 vout.t109 vss sky130_fd_pr__nfet_01v8_lvt ad=0p pd=0u as=0p ps=0u w=1e+06u l=1e+06u
X189 vout.t11 vbias.t103 vdd.t22 vdd sky130_fd_pr__pfet_01v8_lvt ad=0p pd=0u as=0p ps=0u w=2e+06u l=1e+06u
X190 a_39543_427.t4 vi.t11 w_39347_2527.t36 w_39347_2527# sky130_fd_pr__pfet_01v8_lvt ad=0p pd=0u as=0p ps=0u w=4e+06u l=1e+06u
X191 vss.t76 a_40487_515.t77 vout.t110 vss sky130_fd_pr__nfet_01v8_lvt ad=0p pd=0u as=0p ps=0u w=1e+06u l=1e+06u
X192 vss.t77 a_40487_515.t78 vout.t111 vss sky130_fd_pr__nfet_01v8_lvt ad=0p pd=0u as=0p ps=0u w=1e+06u l=1e+06u
X193 vdd.t21 vbias.t104 vout.t10 vdd sky130_fd_pr__pfet_01v8_lvt ad=0p pd=0u as=0p ps=0u w=2e+06u l=1e+06u
X194 a_39543_427.t3 vi.t12 w_39347_2527.t37 w_39347_2527# sky130_fd_pr__pfet_01v8_lvt ad=0p pd=0u as=0p ps=0u w=4e+06u l=1e+06u
X195 vdd.t20 vbias.t10 vbias.t11 vdd sky130_fd_pr__pfet_01v8_lvt ad=0p pd=0u as=0p ps=0u w=2e+06u l=1e+06u
X196 vss.t78 a_40487_515.t79 vout.t112 vss sky130_fd_pr__nfet_01v8_lvt ad=0p pd=0u as=0p ps=0u w=1e+06u l=1e+06u
X197 vbias.t9 vbias.t8 vdd.t19 vdd sky130_fd_pr__pfet_01v8_lvt ad=0p pd=0u as=0p ps=0u w=2e+06u l=1e+06u
X198 w_39347_2527.t6 vbias.t105 vdd.t18 vdd sky130_fd_pr__pfet_01v8_lvt ad=0p pd=0u as=0p ps=0u w=2e+06u l=1e+06u
X199 vss.t7 a_39543_427.t58 a_40487_515.t7 vss sky130_fd_pr__nfet_01v8_lvt ad=0p pd=0u as=0p ps=0u w=1e+06u l=1e+06u
X200 vi vout sky130_fd_pr__cap_mim_m3_1 l=1.75e+07u w=1.75e+07u
X201 vi vout sky130_fd_pr__cap_mim_m3_1 l=0u w=0u
X202 vss.t6 a_39543_427.t59 a_40487_515.t6 vss sky130_fd_pr__nfet_01v8_lvt ad=0p pd=0u as=0p ps=0u w=1e+06u l=1e+06u
X203 vss.t79 a_40487_515.t80 vout.t113 vss sky130_fd_pr__nfet_01v8_lvt ad=0p pd=0u as=0p ps=0u w=1e+06u l=1e+06u
X204 vout.t9 vbias.t106 vdd.t17 vdd sky130_fd_pr__pfet_01v8_lvt ad=0p pd=0u as=0p ps=0u w=2e+06u l=1e+06u
X205 vout.t8 vbias.t107 vdd.t16 vdd sky130_fd_pr__pfet_01v8_lvt ad=0p pd=0u as=0p ps=0u w=2e+06u l=1e+06u
X206 a_40487_515.t5 a_39543_427.t60 vss.t5 vss sky130_fd_pr__nfet_01v8_lvt ad=0p pd=0u as=0p ps=0u w=1e+06u l=1e+06u
X207 vss.t80 a_40487_515.t81 vout.t114 vss sky130_fd_pr__nfet_01v8_lvt ad=0p pd=0u as=0p ps=0u w=1e+06u l=1e+06u
X208 vout.t7 vbias.t108 vdd.t15 vdd sky130_fd_pr__pfet_01v8_lvt ad=0p pd=0u as=0p ps=0u w=2e+06u l=1e+06u
X209 vout.t115 a_40487_515.t82 vss.t81 vss sky130_fd_pr__nfet_01v8_lvt ad=0p pd=0u as=0p ps=0u w=1e+06u l=1e+06u
X210 vi vout sky130_fd_pr__cap_mim_m3_1 l=0u w=0u
X211 vss.t4 a_39543_427.t61 a_40487_515.t4 vss sky130_fd_pr__nfet_01v8_lvt ad=0p pd=0u as=0p ps=0u w=1e+06u l=1e+06u
X212 vbias.t7 vbias.t6 vdd.t14 vdd sky130_fd_pr__pfet_01v8_lvt ad=0p pd=0u as=0p ps=0u w=2e+06u l=1e+06u
X213 vi vout sky130_fd_pr__cap_mim_m3_1 l=1.75e+07u w=1.75e+07u
X214 vss.t82 a_40487_515.t83 vout.t116 vss sky130_fd_pr__nfet_01v8_lvt ad=0p pd=0u as=0p ps=0u w=1e+06u l=1e+06u
X215 a_40487_515.t29 vref.t12 w_39347_2527.t50 w_39347_2527# sky130_fd_pr__pfet_01v8_lvt ad=0p pd=0u as=0p ps=0u w=4e+06u l=1e+06u
X216 vdd.t13 vbias.t109 w_39347_2527.t5 vdd sky130_fd_pr__pfet_01v8_lvt ad=0p pd=0u as=0p ps=0u w=2e+06u l=1e+06u
X217 vout.t6 vbias.t110 vdd.t12 vdd sky130_fd_pr__pfet_01v8_lvt ad=0p pd=0u as=0p ps=0u w=2e+06u l=1e+06u
X218 vbias.t5 vbias.t4 vdd.t11 vdd sky130_fd_pr__pfet_01v8_lvt ad=0p pd=0u as=0p ps=0u w=2e+06u l=1e+06u
X219 w_39347_2527.t4 vbias.t111 vdd.t10 vdd sky130_fd_pr__pfet_01v8_lvt ad=0p pd=0u as=0p ps=0u w=2e+06u l=1e+06u
X220 w_39347_2527.t51 vref.t13 a_40487_515.t30 w_39347_2527# sky130_fd_pr__pfet_01v8_lvt ad=0p pd=0u as=0p ps=0u w=4e+06u l=1e+06u
X221 vss.t83 a_40487_515.t84 vout.t117 vss sky130_fd_pr__nfet_01v8_lvt ad=0p pd=0u as=0p ps=0u w=1e+06u l=1e+06u
X222 vi vout sky130_fd_pr__cap_mim_m3_1 l=0u w=0u
X223 a_40487_515.t31 vref.t14 w_39347_2527.t52 w_39347_2527# sky130_fd_pr__pfet_01v8_lvt ad=0p pd=0u as=0p ps=0u w=4e+06u l=1e+06u
X224 a_40487_515.t3 a_39543_427.t62 vss.t3 vss sky130_fd_pr__nfet_01v8_lvt ad=0p pd=0u as=0p ps=0u w=1e+06u l=1e+06u
X225 vout.t118 a_40487_515.t85 vss.t84 vss sky130_fd_pr__nfet_01v8_lvt ad=0p pd=0u as=0p ps=0u w=1e+06u l=1e+06u
X226 vout.t5 vbias.t112 vdd.t9 vdd sky130_fd_pr__pfet_01v8_lvt ad=0p pd=0u as=0p ps=0u w=2e+06u l=1e+06u
X227 a_39543_427.t17 a_39543_427.t16 vss.t2 vss sky130_fd_pr__nfet_01v8_lvt ad=0p pd=0u as=0p ps=0u w=1e+06u l=1e+06u
X228 vss.t85 a_40487_515.t86 vout.t119 vss sky130_fd_pr__nfet_01v8_lvt ad=0p pd=0u as=0p ps=0u w=1e+06u l=1e+06u
X229 vout.t4 vbias.t113 vdd.t8 vdd sky130_fd_pr__pfet_01v8_lvt ad=0p pd=0u as=0p ps=0u w=2e+06u l=1e+06u
X230 vout.t120 a_40487_515.t87 vss.t86 vss sky130_fd_pr__nfet_01v8_lvt ad=0p pd=0u as=0p ps=0u w=1e+06u l=1e+06u
X231 vdd.t7 vbias.t114 vout.t3 vdd sky130_fd_pr__pfet_01v8_lvt ad=0p pd=0u as=0p ps=0u w=2e+06u l=1e+06u
X232 a_39543_427.t19 a_39543_427.t18 vss.t1 vss sky130_fd_pr__nfet_01v8_lvt ad=0p pd=0u as=0p ps=0u w=1e+06u l=1e+06u
X233 vss.t87 a_40487_515.t88 vout.t121 vss sky130_fd_pr__nfet_01v8_lvt ad=0p pd=0u as=0p ps=0u w=1e+06u l=1e+06u
X234 w_39347_2527.t53 vref.t15 a_40487_515.t32 w_39347_2527# sky130_fd_pr__pfet_01v8_lvt ad=0p pd=0u as=0p ps=0u w=4e+06u l=1e+06u
X235 a_40487_515.t2 a_39543_427.t63 vss.t0 vss sky130_fd_pr__nfet_01v8_lvt ad=0p pd=0u as=0p ps=0u w=1e+06u l=1e+06u
X236 a_39543_427.t2 vi.t13 w_39347_2527.t38 w_39347_2527# sky130_fd_pr__pfet_01v8_lvt ad=0p pd=0u as=0p ps=0u w=4e+06u l=1e+06u
X237 vout.t122 a_40487_515.t89 vss.t88 vss sky130_fd_pr__nfet_01v8_lvt ad=0p pd=0u as=0p ps=0u w=1e+06u l=1e+06u
X238 vi vout sky130_fd_pr__cap_mim_m3_1 l=1.75e+07u w=1.75e+07u
X239 vdd.t6 vbias.t115 w_39347_2527.t3 vdd sky130_fd_pr__pfet_01v8_lvt ad=0p pd=0u as=0p ps=0u w=2e+06u l=1e+06u
X240 vss.t89 a_40487_515.t90 vout.t123 vss sky130_fd_pr__nfet_01v8_lvt ad=0p pd=0u as=0p ps=0u w=1e+06u l=1e+06u
X241 vout.t124 a_40487_515.t91 vss.t90 vss sky130_fd_pr__nfet_01v8_lvt ad=0p pd=0u as=0p ps=0u w=1e+06u l=1e+06u
X242 vdd.t5 vbias.t116 w_39347_2527.t2 vdd sky130_fd_pr__pfet_01v8_lvt ad=0p pd=0u as=0p ps=0u w=2e+06u l=1e+06u
X243 a_39543_427.t1 vi.t14 w_39347_2527.t26 w_39347_2527# sky130_fd_pr__pfet_01v8_lvt ad=0p pd=0u as=0p ps=0u w=4e+06u l=1e+06u
X244 w_39347_2527.t39 vi.t15 a_39543_427.t0 w_39347_2527# sky130_fd_pr__pfet_01v8_lvt ad=0p pd=0u as=0p ps=0u w=4e+06u l=1e+06u
X245 vss.t91 a_40487_515.t92 vout.t125 vss sky130_fd_pr__nfet_01v8_lvt ad=0p pd=0u as=0p ps=0u w=1e+06u l=1e+06u
X246 vi vout sky130_fd_pr__cap_mim_m3_1 l=0u w=0u
X247 vi vout sky130_fd_pr__cap_mim_m3_1 l=0u w=0u
X248 vout.t2 vbias.t117 vdd.t4 vdd sky130_fd_pr__pfet_01v8_lvt ad=0p pd=0u as=0p ps=0u w=2e+06u l=1e+06u
X249 vss.t92 a_40487_515.t93 vout.t126 vss sky130_fd_pr__nfet_01v8_lvt ad=0p pd=0u as=0p ps=0u w=1e+06u l=1e+06u
X250 vdd.t3 vbias.t118 vout.t1 vdd sky130_fd_pr__pfet_01v8_lvt ad=0p pd=0u as=0p ps=0u w=2e+06u l=1e+06u
X251 vout.t127 a_40487_515.t94 vss.t93 vss sky130_fd_pr__nfet_01v8_lvt ad=0p pd=0u as=0p ps=0u w=1e+06u l=1e+06u
X252 vdd.t2 vbias.t119 vout.t0 vdd sky130_fd_pr__pfet_01v8_lvt ad=0p pd=0u as=0p ps=0u w=2e+06u l=1e+06u
X253 vss.t94 a_40487_515.t95 vout.t128 vss sky130_fd_pr__nfet_01v8_lvt ad=0p pd=0u as=0p ps=0u w=1e+06u l=1e+06u
X254 a_40487_515.t18 a_43139_4361# w_42973_3203# sky130_fd_pr__res_xhigh_po w=350000u l=2.8e+06u
X255 vbias.t3 vbias.t2 vdd.t1 vdd sky130_fd_pr__pfet_01v8_lvt ad=0p pd=0u as=0p ps=0u w=2e+06u l=1e+06u
X256 vi vout sky130_fd_pr__cap_mim_m3_1 l=1.75e+07u w=1.75e+07u
X257 vdd.t0 vbias.t0 vbias.t1 vdd sky130_fd_pr__pfet_01v8_lvt ad=0p pd=0u as=0p ps=0u w=2e+06u l=1e+06u
X258 vout.t129 a_40487_515.t96 vss.t95 vss sky130_fd_pr__nfet_01v8_lvt ad=0p pd=0u as=0p ps=0u w=1e+06u l=1e+06u
C0 vout vi 479.76fF
C1 vss vout 9.64fF
C2 vbias vout 9.70fF
C3 vdd vbias 34.89fF
C4 a_43139_4361# vout 80.16fF
C5 vi vref 1.91fF
C6 vdd vout 13.17fF
R0 vbias.n128 vbias.t20 63.632
R1 vbias.n195 vbias.t42 63.63
R2 vbias.n87 vbias.t10 63.63
R3 vbias.n194 vbias.t95 63.63
R4 vbias.n19 vbias.t72 63.63
R5 vbias.n105 vbias.t108 63.63
R6 vbias.n105 vbias.t103 63.63
R7 vbias.n20 vbias.t93 63.63
R8 vbias.n106 vbias.t51 63.63
R9 vbias.n106 vbias.t119 63.63
R10 vbias.n18 vbias.t50 63.63
R11 vbias.n104 vbias.t81 63.63
R12 vbias.n104 vbias.t75 63.63
R13 vbias.n21 vbias.t64 63.63
R14 vbias.n107 vbias.t98 63.63
R15 vbias.n107 vbias.t91 63.63
R16 vbias.n23 vbias.t83 63.63
R17 vbias.n109 vbias.t117 63.63
R18 vbias.n109 vbias.t113 63.63
R19 vbias.n24 vbias.t56 63.63
R20 vbias.n110 vbias.t88 63.63
R21 vbias.n110 vbias.t82 63.63
R22 vbias.n22 vbias.t85 63.63
R23 vbias.n108 vbias.t118 63.63
R24 vbias.n108 vbias.t114 63.63
R25 vbias.n25 vbias.t71 63.63
R26 vbias.n111 vbias.t106 63.63
R27 vbias.n111 vbias.t102 63.63
R28 vbias.n27 vbias.t48 63.63
R29 vbias.n113 vbias.t79 63.63
R30 vbias.n113 vbias.t74 63.63
R31 vbias.n28 vbias.t67 63.63
R32 vbias.n114 vbias.t101 63.63
R33 vbias.n114 vbias.t97 63.63
R34 vbias.n26 vbias.t100 63.63
R35 vbias.n112 vbias.t59 63.63
R36 vbias.n112 vbias.t53 63.63
R37 vbias.n29 vbias.t110 63.63
R38 vbias.n115 vbias.t69 63.63
R39 vbias.n115 vbias.t66 63.63
R40 vbias.n31 vbias.t77 63.63
R41 vbias.n117 vbias.t112 63.63
R42 vbias.n117 vbias.t107 63.63
R43 vbias.n32 vbias.t104 63.63
R44 vbias.n118 vbias.t63 63.63
R45 vbias.n118 vbias.t58 63.63
R46 vbias.n30 vbias.t62 63.63
R47 vbias.n116 vbias.t96 63.63
R48 vbias.n116 vbias.t90 63.63
R49 vbias.n63 vbias.t60 63.63
R50 vbias.n126 vbias.t94 63.63
R51 vbias.n126 vbias.t87 63.63
R52 vbias.n159 vbias.t44 63.63
R53 vbias.n159 vbias.t34 63.63
R54 vbias.n77 vbias.t6 63.63
R55 vbias.n64 vbias.t38 63.63
R56 vbias.n103 vbias.t16 63.63
R57 vbias.n62 vbias.t115 63.63
R58 vbias.n125 vbias.t73 63.63
R59 vbias.n125 vbias.t70 63.63
R60 vbias.n33 vbias.t55 63.63
R61 vbias.n119 vbias.t86 63.63
R62 vbias.n119 vbias.t80 63.63
R63 vbias.n123 vbias.t14 63.63
R64 vbias.n35 vbias.t30 63.63
R65 vbias.n123 vbias.t8 63.63
R66 vbias.n78 vbias.t54 63.63
R67 vbias.n161 vbias.t84 63.63
R68 vbias.n161 vbias.t78 63.63
R69 vbias.n83 vbias.t92 63.63
R70 vbias.n188 vbias.t49 63.63
R71 vbias.n188 vbias.t116 63.63
R72 vbias.n189 vbias.t52 63.63
R73 vbias.n190 vbias.t18 63.63