* NGSPICE file created from user_analog_project_wrapper.ext - technology: sky130A

.subckt io_clamp vdd vss
D0 w_96698_n78672# vss sky130_fd_pr__diode_pd2nw_05v5 area=2.25e+16p
D1 w_96698_n6672# w_96698_n42672# sky130_fd_pr__diode_pd2nw_05v5 area=2.25e+16p
D2 vdd w_96698_n6672# sky130_fd_pr__diode_pd2nw_05v5 area=2.25e+16p
D3 w_96698_n42672# w_96698_n78672# sky130_fd_pr__diode_pd2nw_05v5 area=2.25e+16p
.ends

.subckt Class_D_post vp_p out_p vin_p vcmp_p vin avdd vin_n vn_p dvdd vn_n out_n vref
+ vtriang vss vcmp_n iin_15u vp_n w_n49798_13484# w_n49798_65757# w_n47900_14200#
X0 dvdd vss sky130_fd_pr__cap_mim_m3_2 l=3e+07u w=3e+07u
X1 out_n vn_p dvdd dvdd sky130_fd_pr__pfet_01v8 ad=0p pd=0u as=0p ps=0u w=4e+06u l=150000u M=3000
X2 vss vn_n out_n vss sky130_fd_pr__nfet_01v8 ad=0p pd=0u as=0p ps=0u w=4e+06u l=150000u M=600
X3 out_p vp_p dvdd dvdd sky130_fd_pr__pfet_01v8 ad=0p pd=0u as=0p ps=0u w=4e+06u l=150000u M=3000
X4 out_p vp_n vss vss sky130_fd_pr__nfet_01v8 ad=0p pd=0u as=0p ps=0u w=4e+06u l=150000u M=600
X5 a_n61221_57011# a_n63453_57011# vss vss sky130_fd_pr__nfet_01v8_lvt ad=0p pd=0u as=0p ps=0u w=1e+06u l=1e+06u M=64
X6 avdd a_n91733_42923# vin_p avdd sky130_fd_pr__pfet_01v8_lvt ad=0p pd=0u as=0p ps=0u w=2e+06u l=1e+06u M=48
X7 vss a_n64397_22887# a_n64397_22887# vss sky130_fd_pr__nfet_01v8_lvt ad=0p pd=0u as=0p ps=0u w=1e+06u l=1e+06u M=16
X8 vss dvdd sky130_fd_pr__cap_mim_m3_2 l=1.6e+07u w=1.6e+07u
X9 vss a_n16362_6492# vn_p vss sky130_fd_pr__nfet_01v8 ad=0p pd=0u as=0p ps=0u w=5e+06u l=150000u M=80
X10 a_n59836_35385# a_n91733_39491# avdd avdd sky130_fd_pr__pfet_01v8_lvt ad=0p pd=0u as=0p ps=0u w=2e+06u l=1e+06u M=48
X11 vss dvdd sky130_fd_pr__cap_mim_m3_2 l=1.6e+07u w=1.6e+07u
X12 a_n65384_39513# a_n91733_41779# avdd avdd sky130_fd_pr__pfet_01v8_lvt ad=0p pd=0u as=0p ps=0u w=2e+06u l=1e+06u M=48
X13 a_n91733_45211# iin_15u vss vss sky130_fd_pr__nfet_01v8_lvt ad=0p pd=0u as=0p ps=0u w=4e+06u l=2e+06u M=8
X14 a_n62068_35385# a_n63012_35297# vss vss sky130_fd_pr__nfet_01v8_lvt ad=0p pd=0u as=0p ps=0u w=1e+06u l=1e+06u M=16
X15 avdd a_n91733_37203# a_n61221_22975# avdd sky130_fd_pr__pfet_01v8_lvt ad=0p pd=0u as=0p ps=0u w=2e+06u l=1e+06u M=48
X16 a_n61221_57011# a_n91733_44067# avdd avdd sky130_fd_pr__pfet_01v8_lvt ad=0p pd=0u as=0p ps=0u w=2e+06u l=1e+06u M=48
X17 w_n48521_59023# a_n59836_35385# a_n48325_56923# w_n48521_59023# sky130_fd_pr__pfet_01v8_lvt ad=0p pd=0u as=0p ps=0u w=4e+06u l=1e+06u M=16
X18 avdd a_n91733_41779# a_n91733_41779# avdd sky130_fd_pr__pfet_01v8_lvt ad=0p pd=0u as=0p ps=0u w=2e+06u l=1e+06u M=24
X19 a_n48544_35385# a_n49488_35297# vss vss sky130_fd_pr__nfet_01v8_lvt ad=0p pd=0u as=0p ps=0u w=1e+06u l=1e+06u M=16
X20 avdd a_n91733_45211# a_n91733_45211# avdd sky130_fd_pr__pfet_01v8_lvt ad=0p pd=0u as=0p ps=0u w=2e+06u l=1e+06u M=24
X21 vcmp_n a_n47381_18289# vss vss sky130_fd_pr__nfet_01v8_lvt ad=0p pd=0u as=0p ps=0u w=1e+06u l=1e+06u M=64
X22 w_n78659_43954# vin a_n77519_44173# w_n78659_43954# sky130_fd_pr__pfet_01v8_lvt ad=0p pd=0u as=0p ps=0u w=4e+06u l=1e+06u M=16
X23 vp_p a_n16362_71100# vss vss sky130_fd_pr__nfet_01v8 ad=0p pd=0u as=0p ps=0u w=5e+06u l=150000u M=80
X24 vss a_n19274_79650# a_n22132_76606# vss sky130_fd_pr__nfet_01v8 ad=0p pd=0u as=0p ps=0u w=5e+06u l=150000u M=4
X25 a_n61221_22975# a_n63453_18290# vss vss sky130_fd_pr__nfet_01v8_lvt ad=0p pd=0u as=0p ps=0u w=1e+06u l=1e+06u M=64
X26 avdd a_n91733_44067# w_n64593_59023# avdd sky130_fd_pr__pfet_01v8_lvt ad=0p pd=0u as=0p ps=0u w=2e+06u l=1e+06u M=24
X27 dvdd vss sky130_fd_pr__cap_mim_m3_2 l=3e+07u w=3e+07u
X28 vss a_n77519_31129# vin_n vss sky130_fd_pr__nfet_01v8_lvt ad=0p pd=0u as=0p ps=0u w=1e+06u l=1e+06u M=64
X29 a_n78463_31041# a_n79461_37096# w_n78659_33141# w_n78659_33141# sky130_fd_pr__pfet_01v8_lvt ad=0p pd=0u as=0p ps=0u w=4e+06u l=1e+06u M=16
X30 a_n91733_42923# a_n91733_42923# avdd avdd sky130_fd_pr__pfet_01v8_lvt ad=0p pd=0u as=0p ps=0u w=2e+06u l=1e+06u M=24
X31 vp_p a_n16362_71100# dvdd dvdd sky130_fd_pr__pfet_01v8 ad=0p pd=0u as=0p ps=0u w=5e+06u l=150000u M=160
X32 w_n78659_43954# a_n91733_42923# avdd avdd sky130_fd_pr__pfet_01v8_lvt ad=0p pd=0u as=0p ps=0u w=2e+06u l=1e+06u M=24
X33 vss a_n22132_76606# vp_n vss sky130_fd_pr__nfet_01v8 ad=0p pd=0u as=0p ps=0u w=5e+06u l=150000u M=18
X34 dvdd vss sky130_fd_pr__cap_mim_m3_2 l=3e+07u w=3e+07u
X35 a_n48544_35385# a_n48744_37519# w_n49684_37397# w_n49684_37397# sky130_fd_pr__pfet_01v8_lvt ad=0p pd=0u as=0p ps=0u w=4e+06u l=1e+06u M=16
X36 vcmp_n a_n91733_36059# avdd avdd sky130_fd_pr__pfet_01v8_lvt ad=0p pd=0u as=0p ps=0u w=2e+06u l=1e+06u M=48
X37 a_n63453_57011# vref w_n64593_59023# w_n64593_59023# sky130_fd_pr__pfet_01v8_lvt ad=0p pd=0u as=0p ps=0u w=4e+06u l=1e+06u M=16
X38 a_n48744_37519# a_n65384_39513# vss sky130_fd_pr__res_xhigh_po w=350000u l=9e+06u
X39 vcmp_p a_n47381_57011# vss vss sky130_fd_pr__nfet_01v8_lvt ad=0p pd=0u as=0p ps=0u w=1e+06u l=1e+06u M=64
X40 a_n63012_35297# a_n63012_35297# vss vss sky130_fd_pr__nfet_01v8_lvt ad=0p pd=0u as=0p ps=0u w=1e+06u l=1e+06u M=16
X41 dvdd vss sky130_fd_pr__cap_mim_m3_2 l=3e+07u w=3e+07u
X42 dvdd vss sky130_fd_pr__cap_mim_m3_2 l=3e+07u w=3e+07u
X43 avdd vss sky130_fd_pr__cap_mim_m3_2 l=3e+07u w=3e+07u
X44 w_n64593_18071# a_n68715_22497# a_n64397_22887# w_n64593_18071# sky130_fd_pr__pfet_01v8_lvt ad=0p pd=0u as=0p ps=0u w=4e+06u l=1e+06u M=16
X45 vss a_n64397_56923# a_n63453_57011# vss sky130_fd_pr__nfet_01v8_lvt ad=0p pd=0u as=0p ps=0u w=1e+06u l=1e+06u M=16
X46 dvdd vss sky130_fd_pr__cap_mim_m3_2 l=3e+07u w=3e+07u
X47 a_n78463_48770# a_n78463_48770# vss vss sky130_fd_pr__nfet_01v8_lvt ad=0p pd=0u as=0p ps=0u w=1e+06u l=1e+06u M=16
X48 dvdd a_n21974_78024# a_n16362_71100# dvdd sky130_fd_pr__pfet_01v8 ad=0p pd=0u as=0p ps=0u w=5e+06u l=150000u M=36
X49 a_n16362_6492# a_n21974_3362# dvdd dvdd sky130_fd_pr__pfet_01v8 ad=0p pd=0u as=0p ps=0u w=5e+06u l=150000u M=36
X50 a_n91733_44067# iin_15u vss vss sky130_fd_pr__nfet_01v8_lvt ad=0p pd=0u as=0p ps=0u w=4e+06u l=2e+06u M=8
X51 dvdd vss sky130_fd_pr__cap_mim_m3_2 l=3e+07u w=3e+07u
X52 dvdd a_n19274_79650# a_n22132_76606# dvdd sky130_fd_pr__pfet_01v8 ad=0p pd=0u as=0p ps=0u w=5e+06u l=150000u M=8
X53 vcmp_p a_n91733_45211# avdd avdd sky130_fd_pr__pfet_01v8_lvt ad=0p pd=0u as=0p ps=0u w=2e+06u l=1e+06u M=48
X54 a_n91733_44067# a_n91733_44067# avdd avdd sky130_fd_pr__pfet_01v8_lvt ad=0p pd=0u as=0p ps=0u w=2e+06u l=1e+06u M=24
X55 iin_15u vss sky130_fd_pr__cap_mim_m3_2 l=3e+07u w=3e+07u
X56 dvdd vss sky130_fd_pr__cap_mim_m3_2 l=3e+07u w=3e+07u
X57 dvdd vss sky130_fd_pr__cap_mim_m3_2 l=3e+07u w=3e+07u
X58 iin_15u vss sky130_fd_pr__cap_mim_m3_2 l=3e+07u w=3e+07u
X59 a_n59836_35385# a_n62068_35385# vss vss sky130_fd_pr__nfet_01v8_lvt ad=0p pd=0u as=0p ps=0u w=1e+06u l=1e+06u M=64
X60 avdd vss sky130_fd_pr__cap_mim_m3_2 l=3e+07u w=3e+07u
X61 a_n65384_39513# a_n48544_35385# vss vss sky130_fd_pr__nfet_01v8_lvt ad=0p pd=0u as=0p ps=0u w=1e+06u l=1e+06u M=64
X62 a_n47381_18289# a_n61221_22975# w_n48521_18070# w_n48521_18070# sky130_fd_pr__pfet_01v8_lvt ad=0p pd=0u as=0p ps=0u w=4e+06u l=1e+06u M=16
X63 vn_p a_n16362_6492# dvdd dvdd sky130_fd_pr__pfet_01v8 ad=0p pd=0u as=0p ps=0u w=5e+06u l=150000u M=160
X64 avdd a_n91733_36059# w_n48521_18070# avdd sky130_fd_pr__pfet_01v8_lvt ad=0p pd=0u as=0p ps=0u w=2e+06u l=1e+06u M=24
X65 vss dvdd sky130_fd_pr__cap_mim_m3_2 l=1.6e+07u w=1.6e+07u
X66 dvdd vss sky130_fd_pr__cap_mim_m3_2 l=3e+07u w=3e+07u
X67 vss a_n48325_22886# a_n48325_22886# vss sky130_fd_pr__nfet_01v8_lvt ad=0p pd=0u as=0p ps=0u w=1e+06u l=1e+06u M=16
X68 dvdd vss sky130_fd_pr__cap_mim_m3_2 l=3e+07u w=3e+07u
X69 w_n63208_37397# vref a_n62068_35385# w_n63208_37397# sky130_fd_pr__pfet_01v8_lvt ad=0p pd=0u as=0p ps=0u w=4e+06u l=1e+06u M=16
X70 iin_15u vss sky130_fd_pr__cap_mim_m3_2 l=3e+07u w=3e+07u
X71 a_n68715_23451# a_n67283_23133# vss sky130_fd_pr__res_xhigh_po w=350000u l=5e+06u
X72 dvdd vss sky130_fd_pr__cap_mim_m3_2 l=3e+07u w=3e+07u
X73 avdd vss sky130_fd_pr__cap_mim_m3_2 l=3e+07u w=3e+07u
X74 avdd vss sky130_fd_pr__cap_mim_m3_2 l=3e+07u w=3e+07u
X75 avdd a_n91733_45211# w_n48521_59023# avdd sky130_fd_pr__pfet_01v8_lvt ad=0p pd=0u as=0p ps=0u w=2e+06u l=1e+06u M=24
X76 avdd vss sky130_fd_pr__cap_mim_m3_2 l=3e+07u w=3e+07u
X77 avdd a_n91733_38347# vin_n avdd sky130_fd_pr__pfet_01v8_lvt ad=0p pd=0u as=0p ps=0u w=2e+06u l=1e+06u M=48
X78 a_n91733_36059# a_n91733_36059# avdd avdd sky130_fd_pr__pfet_01v8_lvt ad=0p pd=0u as=0p ps=0u w=2e+06u l=1e+06u M=24
X79 avdd vss sky130_fd_pr__cap_mim_m3_2 l=3e+07u w=3e+07u
X80 avdd a_n91733_37203# a_n91733_37203# avdd sky130_fd_pr__pfet_01v8_lvt ad=0p pd=0u as=0p ps=0u w=2e+06u l=1e+06u M=24
X81 avdd vss sky130_fd_pr__cap_mim_m3_2 l=3e+07u w=3e+07u
X82 avdd vss sky130_fd_pr__cap_mim_m3_2 l=3e+07u w=3e+07u
X83 avdd vss sky130_fd_pr__cap_mim_m3_2 l=3e+07u w=3e+07u
X84 dvdd vss sky130_fd_pr__cap_mim_m3_2 l=3e+07u w=3e+07u
X85 a_n63453_18290# vref w_n64593_18071# w_n64593_18071# sky130_fd_pr__pfet_01v8_lvt ad=0p pd=0u as=0p ps=0u w=4e+06u l=1e+06u M=16
X86 avdd vss sky130_fd_pr__cap_mim_m3_2 l=3e+07u w=3e+07u
X87 dvdd a_n22132_4780# vn_n dvdd sky130_fd_pr__pfet_01v8 ad=0p pd=0u as=0p ps=0u w=5e+06u l=150000u M=36
X88 a_n22016_3540# vss sky130_fd_pr__cap_mim_m3_1 l=1.775e+07u w=1.775e+07u
X89 a_n91733_38347# a_n91733_38347# avdd avdd sky130_fd_pr__pfet_01v8_lvt ad=0p pd=0u as=0p ps=0u w=2e+06u l=1e+06u M=24
X90 a_n91733_39491# a_n91733_39491# avdd avdd sky130_fd_pr__pfet_01v8_lvt ad=0p pd=0u as=0p ps=0u w=2e+06u l=1e+06u M=24
X91 vss dvdd sky130_fd_pr__cap_mim_m3_2 l=1.6e+07u w=1.6e+07u
X92 iin_15u vss sky130_fd_pr__cap_mim_m3_2 l=3e+07u w=3e+07u
X93 iin_15u vss sky130_fd_pr__cap_mim_m3_2 l=3e+07u w=3e+07u
X94 vss a_n77519_44173# vin_p vss sky130_fd_pr__nfet_01v8_lvt ad=0p pd=0u as=0p ps=0u w=1e+06u l=1e+06u M=64
X95 avdd vss sky130_fd_pr__cap_mim_m3_2 l=3e+07u w=3e+07u
X96 dvdd vss sky130_fd_pr__cap_mim_m3_2 l=3e+07u w=3e+07u
X97 iin_15u vss sky130_fd_pr__cap_mim_m3_2 l=3e+07u w=3e+07u
X98 vss a_n64397_22887# a_n63453_18290# vss sky130_fd_pr__nfet_01v8_lvt ad=0p pd=0u as=0p ps=0u w=1e+06u l=1e+06u M=16
X99 iin_15u vss sky130_fd_pr__cap_mim_m3_2 l=3e+07u w=3e+07u
X100 avdd vss sky130_fd_pr__cap_mim_m3_2 l=3e+07u w=3e+07u
X101 dvdd vss sky130_fd_pr__cap_mim_m3_2 l=3e+07u w=3e+07u
X102 a_n22016_77504# vss sky130_fd_pr__cap_mim_m3_1 l=1.775e+07u w=1.775e+07u
X103 a_n22016_3540# vss sky130_fd_pr__cap_mim_m3_1 l=1.775e+07u w=1.775e+07u
X104 dvdd vss sky130_fd_pr__cap_mim_m3_2 l=3e+07u w=3e+07u
X105 iin_15u vss sky130_fd_pr__cap_mim_m3_2 l=3e+07u w=3e+07u
X106 vss dvdd sky130_fd_pr__cap_mim_m3_2 l=1.6e+07u w=1.6e+07u
X107 a_n63012_35297# a_n65384_41739# w_n63208_37397# w_n63208_37397# sky130_fd_pr__pfet_01v8_lvt ad=0p pd=0u as=0p ps=0u w=4e+06u l=1e+06u M=16
X108 vss dvdd sky130_fd_pr__cap_mim_m3_2 l=1.6e+07u w=1.6e+07u
X109 avdd vss sky130_fd_pr__cap_mim_m3_2 l=3e+07u w=3e+07u
X110 iin_15u vss sky130_fd_pr__cap_mim_m3_2 l=3e+07u w=3e+07u
X111 w_n78659_33141# a_n91733_38347# avdd avdd sky130_fd_pr__pfet_01v8_lvt ad=0p pd=0u as=0p ps=0u w=2e+06u l=1e+06u M=24
X112 a_n68715_22497# a_n61221_22975# sky130_fd_pr__cap_mim_m3_1 l=1.75e+07u w=1.75e+07u
X113 iin_15u vss sky130_fd_pr__cap_mim_m3_2 l=3e+07u w=3e+07u
X114 dvdd a_n22132_76606# vp_n dvdd sky130_fd_pr__pfet_01v8 ad=0p pd=0u as=0p ps=0u w=5e+06u l=150000u M=36
X115 a_n68715_58873# a_n61221_57011# sky130_fd_pr__cap_mim_m3_1 l=1.75e+07u w=1.75e+07u
X116 dvdd vss sky130_fd_pr__cap_mim_m3_2 l=3e+07u w=3e+07u
X117 vss a_n78463_31041# a_n78463_31041# vss sky130_fd_pr__nfet_01v8_lvt ad=0p pd=0u as=0p ps=0u w=1e+06u l=1e+06u M=16
X118 dvdd vcmp_p a_n22016_76698# dvdd sky130_fd_pr__pfet_01v8 ad=0p pd=0u as=0p ps=0u w=2e+06u l=150000u
X119 avdd vss sky130_fd_pr__cap_mim_m3_2 l=3e+07u w=3e+07u
X120 dvdd vss sky130_fd_pr__cap_mim_m3_2 l=3e+07u w=3e+07u
X121 a_n22132_4780# a_n19274_n434# vss vss sky130_fd_pr__nfet_01v8 ad=0p pd=0u as=0p ps=0u w=5e+06u l=150000u M=4
X122 avdd vss sky130_fd_pr__cap_mim_m3_2 l=3e+07u w=3e+07u
X123 iin_15u vss sky130_fd_pr__cap_mim_m3_2 l=3e+07u w=3e+07u
X124 a_n66616_40149# a_n65384_40467# vss sky130_fd_pr__res_xhigh_po w=350000u l=4e+06u
X125 avdd vss sky130_fd_pr__cap_mim_m3_2 l=3e+07u w=3e+07u
X126 a_n21974_3362# a_n19274_6492# vss vss sky130_fd_pr__nfet_01v8 ad=0p pd=0u as=0p ps=0u w=5e+06u l=150000u M=4
X127 dvdd vss sky130_fd_pr__cap_mim_m3_2 l=3e+07u w=3e+07u
X128 iin_15u vss sky130_fd_pr__cap_mim_m3_2 l=3e+07u w=3e+07u
X129 iin_15u vss sky130_fd_pr__cap_mim_m3_2 l=3e+07u w=3e+07u
X130 avdd vss sky130_fd_pr__cap_mim_m3_2 l=3e+07u w=3e+07u
X131 avdd vss sky130_fd_pr__cap_mim_m3_2 l=3e+07u w=3e+07u
X132 a_n78463_48770# vin_p w_n78659_43954# w_n78659_43954# sky130_fd_pr__pfet_01v8_lvt ad=0p pd=0u as=0p ps=0u w=4e+06u l=1e+06u M=16
X133 avdd vss sky130_fd_pr__cap_mim_m3_2 l=3e+07u w=3e+07u
X134 a_n16362_71100# a_n21974_78024# vss vss sky130_fd_pr__nfet_01v8 ad=0p pd=0u as=0p ps=0u w=5e+06u l=150000u M=18
X135 a_n77519_31129# a_n78463_31041# vss vss sky130_fd_pr__nfet_01v8_lvt ad=0p pd=0u as=0p ps=0u w=1e+06u l=1e+06u M=16
X136 avdd vss sky130_fd_pr__cap_mim_m3_2 l=3e+07u w=3e+07u
X137 avdd vss sky130_fd_pr__cap_mim_m3_2 l=3e+07u w=3e+07u
X138 w_n64593_59023# a_n68715_58873# a_n64397_56923# w_n64593_59023# sky130_fd_pr__pfet_01v8_lvt ad=0p pd=0u as=0p ps=0u w=4e+06u l=1e+06u M=16
X139 iin_15u vss sky130_fd_pr__cap_mim_m3_2 l=3e+07u w=3e+07u
X140 vss a_n64397_56923# a_n64397_56923# vss sky130_fd_pr__nfet_01v8_lvt ad=0p pd=0u as=0p ps=0u w=1e+06u l=1e+06u M=16
X141 vss a_n78463_48770# a_n77519_44173# vss sky130_fd_pr__nfet_01v8_lvt ad=0p pd=0u as=0p ps=0u w=1e+06u l=1e+06u M=16
X142 dvdd vss sky130_fd_pr__cap_mim_m3_2 l=3e+07u w=3e+07u
X143 a_n47381_57011# a_n48325_56923# vss vss sky130_fd_pr__nfet_01v8_lvt ad=0p pd=0u as=0p ps=0u w=1e+06u l=1e+06u M=16
X144 iin_15u vss sky130_fd_pr__cap_mim_m3_2 l=3e+07u w=3e+07u
X145 vss dvdd sky130_fd_pr__cap_mim_m3_2 l=1.6e+07u w=1.6e+07u
X146 avdd vss sky130_fd_pr__cap_mim_m3_2 l=3e+07u w=3e+07u
X147 dvdd vss sky130_fd_pr__cap_mim_m3_2 l=3e+07u w=3e+07u
X148 avdd vss sky130_fd_pr__cap_mim_m3_2 l=3e+07u w=3e+07u
X149 iin_15u vss sky130_fd_pr__cap_mim_m3_2 l=3e+07u w=3e+07u
X150 iin_15u vss sky130_fd_pr__cap_mim_m3_2 l=3e+07u w=3e+07u
X151 w_n78659_33141# vref a_n77519_31129# w_n78659_33141# sky130_fd_pr__pfet_01v8_lvt ad=0p pd=0u as=0p ps=0u w=4e+06u l=1e+06u M=16
X152 dvdd vss sky130_fd_pr__cap_mim_m3_2 l=3e+07u w=3e+07u
X153 avdd a_n91733_41779# w_n49684_37397# avdd sky130_fd_pr__pfet_01v8_lvt ad=0p pd=0u as=0p ps=0u w=2e+06u l=1e+06u M=24
X154 a_n22016_77504# vss sky130_fd_pr__cap_mim_m3_1 l=1.775e+07u w=1.775e+07u
X155 a_n68715_58873# a_n61221_57011# sky130_fd_pr__cap_mim_m3_1 l=1.75e+07u w=1.75e+07u
X156 dvdd vss sky130_fd_pr__cap_mim_m3_2 l=3e+07u w=3e+07u
X157 iin_15u vss sky130_fd_pr__cap_mim_m3_2 l=3e+07u w=3e+07u
X158 w_n48521_59023# a_n61221_57011# a_n47381_57011# w_n48521_59023# sky130_fd_pr__pfet_01v8_lvt ad=0p pd=0u as=0p ps=0u w=4e+06u l=1e+06u M=16
X159 a_n68715_22497# a_n61221_22975# sky130_fd_pr__cap_mim_m3_1 l=1.75e+07u w=1.75e+07u
X160 a_n49488_35297# a_n49488_35297# vss vss sky130_fd_pr__nfet_01v8_lvt ad=0p pd=0u as=0p ps=0u w=1e+06u l=1e+06u M=16
X161 iin_15u vss sky130_fd_pr__cap_mim_m3_2 l=3e+07u w=3e+07u
X162 vss dvdd sky130_fd_pr__cap_mim_m3_2 l=1.6e+07u w=1.6e+07u
X163 dvdd vss sky130_fd_pr__cap_mim_m3_2 l=3e+07u w=3e+07u
X164 avdd vss sky130_fd_pr__cap_mim_m3_2 l=3e+07u w=3e+07u
X165 dvdd a_n22016_76698# a_n19274_72724# dvdd sky130_fd_pr__pfet_01v8 ad=0p pd=0u as=0p ps=0u w=5e+06u l=150000u M=2
X166 iin_15u vss sky130_fd_pr__cap_mim_m3_2 l=3e+07u w=3e+07u
X167 a_n47381_18289# a_n48325_22886# vss vss sky130_fd_pr__nfet_01v8_lvt ad=0p pd=0u as=0p ps=0u w=1e+06u l=1e+06u M=16
X168 avdd a_n91733_39491# w_n63208_37397# avdd sky130_fd_pr__pfet_01v8_lvt ad=0p pd=0u as=0p ps=0u w=2e+06u l=1e+06u M=24
X169 vss dvdd sky130_fd_pr__cap_mim_m3_2 l=1.6e+07u w=1.6e+07u
X170 vss dvdd sky130_fd_pr__cap_mim_m3_2 l=1.6e+07u w=1.6e+07u
X171 iin_15u vss sky130_fd_pr__cap_mim_m3_2 l=3e+07u w=3e+07u
X172 a_n22016_76698# vss sky130_fd_pr__cap_mim_m3_1 l=1.775e+07u w=1.775e+07u
X173 avdd vss sky130_fd_pr__cap_mim_m3_2 l=3e+07u w=3e+07u
X174 avdd vss sky130_fd_pr__cap_mim_m3_2 l=3e+07u w=3e+07u
X175 a_n22016_3540# vss sky130_fd_pr__cap_mim_m3_1 l=1.775e+07u w=1.775e+07u
X176 avdd vss sky130_fd_pr__cap_mim_m3_2 l=3e+07u w=3e+07u
X177 avdd vss sky130_fd_pr__cap_mim_m3_2 l=3e+07u w=3e+07u
X178 avdd vss sky130_fd_pr__cap_mim_m3_2 l=3e+07u w=3e+07u
X179 iin_15u vss sky130_fd_pr__cap_mim_m3_2 l=3e+07u w=3e+07u
X180 iin_15u vss sky130_fd_pr__cap_mim_m3_2 l=3e+07u w=3e+07u
X181 avdd vss sky130_fd_pr__cap_mim_m3_2 l=3e+07u w=3e+07u
X182 a_n22016_77504# vss sky130_fd_pr__cap_mim_m3_1 l=1.775e+07u w=1.775e+07u
X183 iin_15u vss sky130_fd_pr__cap_mim_m3_2 l=3e+07u w=3e+07u
X184 dvdd vss sky130_fd_pr__cap_mim_m3_2 l=3e+07u w=3e+07u
X185 iin_15u vss sky130_fd_pr__cap_mim_m3_2 l=3e+07u w=3e+07u
X186 avdd vss sky130_fd_pr__cap_mim_m3_2 l=3e+07u w=3e+07u
X187 avdd vss sky130_fd_pr__cap_mim_m3_2 l=3e+07u w=3e+07u
X188 dvdd vss sky130_fd_pr__cap_mim_m3_2 l=3e+07u w=3e+07u
X189 dvdd vss sky130_fd_pr__cap_mim_m3_2 l=3e+07u w=3e+07u
X190 dvdd vss sky130_fd_pr__cap_mim_m3_2 l=3e+07u w=3e+07u
X191 dvdd vss sky130_fd_pr__cap_mim_m3_2 l=3e+07u w=3e+07u
X192 avdd vss sky130_fd_pr__cap_mim_m3_2 l=3e+07u w=3e+07u
X193 iin_15u vss sky130_fd_pr__cap_mim_m3_2 l=3e+07u w=3e+07u
X194 dvdd vss sky130_fd_pr__cap_mim_m3_2 l=3e+07u w=3e+07u
X195 avdd vss sky130_fd_pr__cap_mim_m3_2 l=3e+07u w=3e+07u
X196 avdd vss sky130_fd_pr__cap_mim_m3_2 l=3e+07u w=3e+07u
X197 avdd vss sky130_fd_pr__cap_mim_m3_2 l=3e+07u w=3e+07u
X198 a_n68715_58873# a_n61221_57011# sky130_fd_pr__cap_mim_m3_1 l=1.75e+07u w=1.75e+07u
X199 iin_15u vss sky130_fd_pr__cap_mim_m3_2 l=3e+07u w=3e+07u
X200 dvdd a_n22016_77504# a_n19274_79650# dvdd sky130_fd_pr__pfet_01v8 ad=0p pd=0u as=0p ps=0u w=5e+06u l=150000u M=2
X201 vn_n a_n22132_4780# vss vss sky130_fd_pr__nfet_01v8 ad=0p pd=0u as=0p ps=0u w=5e+06u l=150000u M=18
X202 avdd vss sky130_fd_pr__cap_mim_m3_2 l=3e+07u w=3e+07u
X203 avdd vss sky130_fd_pr__cap_mim_m3_2 l=3e+07u w=3e+07u
X204 avdd vss sky130_fd_pr__cap_mim_m3_2 l=3e+07u w=3e+07u
X205 iin_15u vss sky130_fd_pr__cap_mim_m3_2 l=3e+07u w=3e+07u
X206 avdd vss sky130_fd_pr__cap_mim_m3_2 l=3e+07u w=3e+07u
X207 avdd vss sky130_fd_pr__cap_mim_m3_2 l=3e+07u w=3e+07u
X208 avdd vss sky130_fd_pr__cap_mim_m3_2 l=3e+07u w=3e+07u
X209 iin_15u vss sky130_fd_pr__cap_mim_m3_2 l=3e+07u w=3e+07u
X210 avdd vss sky130_fd_pr__cap_mim_m3_2 l=3e+07u w=3e+07u
X211 dvdd vss sky130_fd_pr__cap_mim_m3_2 l=3e+07u w=3e+07u
X212 a_n68715_22497# a_n61221_22975# sky130_fd_pr__cap_mim_m3_1 l=1.75e+07u w=1.75e+07u
X213 iin_15u vss sky130_fd_pr__cap_mim_m3_2 l=3e+07u w=3e+07u
X214 avdd vss sky130_fd_pr__cap_mim_m3_2 l=3e+07u w=3e+07u
X215 avdd vss sky130_fd_pr__cap_mim_m3_2 l=3e+07u w=3e+07u
X216 vss dvdd sky130_fd_pr__cap_mim_m3_2 l=1.6e+07u w=1.6e+07u
X217 vss dvdd sky130_fd_pr__cap_mim_m3_2 l=1.6e+07u w=1.6e+07u
X218 dvdd a_n19274_6492# a_n21974_3362# dvdd sky130_fd_pr__pfet_01v8 ad=0p pd=0u as=0p ps=0u w=5e+06u l=150000u M=8
X219 vss dvdd sky130_fd_pr__cap_mim_m3_2 l=1.6e+07u w=1.6e+07u
X220 avdd vss sky130_fd_pr__cap_mim_m3_2 l=3e+07u w=3e+07u
X221 avdd vss sky130_fd_pr__cap_mim_m3_2 l=3e+07u w=3e+07u
X222 iin_15u vss sky130_fd_pr__cap_mim_m3_2 l=3e+07u w=3e+07u
X223 iin_15u vss sky130_fd_pr__cap_mim_m3_2 l=3e+07u w=3e+07u
X224 iin_15u vss sky130_fd_pr__cap_mim_m3_2 l=3e+07u w=3e+07u
X225 iin_15u vss sky130_fd_pr__cap_mim_m3_2 l=3e+07u w=3e+07u
X226 dvdd vss sky130_fd_pr__cap_mim_m3_2 l=3e+07u w=3e+07u
X227 vss dvdd sky130_fd_pr__cap_mim_m3_2 l=1.6e+07u w=1.6e+07u
X228 a_n73329_46276# a_n77519_44173# vss sky130_fd_pr__res_xhigh_po w=350000u l=500000u
X229 avdd a_n91733_37203# w_n64593_18071# avdd sky130_fd_pr__pfet_01v8_lvt ad=0p pd=0u as=0p ps=0u w=2e+06u l=1e+06u M=24
X230 avdd vss sky130_fd_pr__cap_mim_m3_2 l=3e+07u w=3e+07u
X231 avdd vss sky130_fd_pr__cap_mim_m3_2 l=3e+07u w=3e+07u
X232 avdd vss sky130_fd_pr__cap_mim_m3_2 l=3e+07u w=3e+07u
X233 iin_15u vss sky130_fd_pr__cap_mim_m3_2 l=3e+07u w=3e+07u
X234 iin_15u vss sky130_fd_pr__cap_mim_m3_2 l=3e+07u w=3e+07u
X235 a_n22016_77504# vss sky130_fd_pr__cap_mim_m3_1 l=1.775e+07u w=1.775e+07u
X236 a_n68715_58873# a_n61221_57011# sky130_fd_pr__cap_mim_m3_1 l=1.75e+07u w=1.75e+07u
X237 dvdd vss sky130_fd_pr__cap_mim_m3_2 l=3e+07u w=3e+07u
X238 avdd vss sky130_fd_pr__cap_mim_m3_2 l=3e+07u w=3e+07u
X239 dvdd vss sky130_fd_pr__cap_mim_m3_2 l=3e+07u w=3e+07u
X240 dvdd vss sky130_fd_pr__cap_mim_m3_2 l=3e+07u w=3e+07u
X241 a_n68715_58873# a_n61221_57011# sky130_fd_pr__cap_mim_m3_1 l=1.75e+07u w=1.75e+07u
X242 iin_15u vss sky130_fd_pr__cap_mim_m3_2 l=3e+07u w=3e+07u
X243 w_n49684_37397# vref a_n49488_35297# w_n49684_37397# sky130_fd_pr__pfet_01v8_lvt ad=0p pd=0u as=0p ps=0u w=4e+06u l=1e+06u M=16
X244 avdd vss sky130_fd_pr__cap_mim_m3_2 l=3e+07u w=3e+07u
X245 vss dvdd sky130_fd_pr__cap_mim_m3_2 l=1.6e+07u w=1.6e+07u
X246 a_n22016_2920# a_n22542_3082# vss vss sky130_fd_pr__nfet_01v8 ad=0p pd=0u as=0p ps=0u w=2e+06u l=150000u
X247 iin_15u vss sky130_fd_pr__cap_mim_m3_2 l=3e+07u w=3e+07u
X248 dvdd vss sky130_fd_pr__cap_mim_m3_2 l=3e+07u w=3e+07u
X249 vss dvdd sky130_fd_pr__cap_mim_m3_2 l=1.6e+07u w=1.6e+07u
X250 iin_15u vss sky130_fd_pr__cap_mim_m3_2 l=3e+07u w=3e+07u
X251 iin_15u vss sky130_fd_pr__cap_mim_m3_2 l=3e+07u w=3e+07u
X252 a_n22016_77504# vss sky130_fd_pr__cap_mim_m3_1 l=1.775e+07u w=1.775e+07u
X253 a_n22016_76698# vss sky130_fd_pr__cap_mim_m3_1 l=1.775e+07u w=1.775e+07u
X254 dvdd vss sky130_fd_pr__cap_mim_m3_2 l=3e+07u w=3e+07u
X255 vss iin_15u a_n91733_38347# vss sky130_fd_pr__nfet_01v8_lvt ad=0p pd=0u as=0p ps=0u w=4e+06u l=2e+06u M=8
X256 a_n22016_4346# a_n22132_4780# dvdd dvdd sky130_fd_pr__pfet_01v8 ad=0p pd=0u as=0p ps=0u w=2e+06u l=150000u
X257 a_n68715_22497# a_n61221_22975# sky130_fd_pr__cap_mim_m3_1 l=1.75e+07u w=1.75e+07u
X258 iin_15u vss sky130_fd_pr__cap_mim_m3_2 l=3e+07u w=3e+07u
X259 vss dvdd sky130_fd_pr__cap_mim_m3_2 l=1.6e+07u w=1.6e+07u
X260 iin_15u vss sky130_fd_pr__cap_mim_m3_2 l=3e+07u w=3e+07u
X261 dvdd vss sky130_fd_pr__cap_mim_m3_2 l=3e+07u w=3e+07u
X262 avdd vss sky130_fd_pr__cap_mim_m3_2 l=3e+07u w=3e+07u
X263 iin_15u vss sky130_fd_pr__cap_mim_m3_2 l=3e+07u w=3e+07u
X264 avdd vss sky130_fd_pr__cap_mim_m3_2 l=3e+07u w=3e+07u
X265 vss a_n21974_3362# a_n16362_6492# vss sky130_fd_pr__nfet_01v8 ad=0p pd=0u as=0p ps=0u w=5e+06u l=150000u M=18
X266 iin_15u vss sky130_fd_pr__cap_mim_m3_2 l=3e+07u w=3e+07u
X267 a_n48325_56923# a_n48325_56923# vss vss sky130_fd_pr__nfet_01v8_lvt ad=0p pd=0u as=0p ps=0u w=1e+06u l=1e+06u M=16
X268 avdd vss sky130_fd_pr__cap_mim_m3_2 l=3e+07u w=3e+07u
X269 avdd vss sky130_fd_pr__cap_mim_m3_2 l=3e+07u w=3e+07u
X270 iin_15u vss sky130_fd_pr__cap_mim_m3_2 l=3e+07u w=3e+07u
X271 iin_15u vss sky130_fd_pr__cap_mim_m3_2 l=3e+07u w=3e+07u
X272 iin_15u vss sky130_fd_pr__cap_mim_m3_2 l=3e+07u w=3e+07u
X273 avdd vss sky130_fd_pr__cap_mim_m3_2 l=3e+07u w=3e+07u
X274 dvdd a_n21974_3362# a_n22016_3540# dvdd sky130_fd_pr__pfet_01v8 ad=0p pd=0u as=0p ps=0u w=2e+06u l=150000u
X275 dvdd vss sky130_fd_pr__cap_mim_m3_2 l=3e+07u w=3e+07u
X276 vss dvdd sky130_fd_pr__cap_mim_m3_2 l=1.6e+07u w=1.6e+07u
X277 dvdd vss sky130_fd_pr__cap_mim_m3_2 l=3e+07u w=3e+07u
X278 avdd vss sky130_fd_pr__cap_mim_m3_2 l=3e+07u w=3e+07u
X279 dvdd vss sky130_fd_pr__cap_mim_m3_2 l=3e+07u w=3e+07u
X280 avdd vss sky130_fd_pr__cap_mim_m3_2 l=3e+07u w=3e+07u
X281 dvdd vss sky130_fd_pr__cap_mim_m3_2 l=3e+07u w=3e+07u
X282 iin_15u vss sky130_fd_pr__cap_mim_m3_2 l=3e+07u w=3e+07u
X283 iin_15u vss sky130_fd_pr__cap_mim_m3_2 l=3e+07u w=3e+07u
X284 dvdd vss sky130_fd_pr__cap_mim_m3_2 l=3e+07u w=3e+07u
X285 vss dvdd sky130_fd_pr__cap_mim_m3_2 l=1.6e+07u w=1.6e+07u
X286 avdd vss sky130_fd_pr__cap_mim_m3_2 l=3e+07u w=3e+07u
X287 dvdd vss sky130_fd_pr__cap_mim_m3_2 l=3e+07u w=3e+07u
X288 iin_15u vss sky130_fd_pr__cap_mim_m3_2 l=3e+07u w=3e+07u
X289 dvdd vss sky130_fd_pr__cap_mim_m3_2 l=3e+07u w=3e+07u
X290 a_n66616_39513# a_n65384_39831# vss sky130_fd_pr__res_xhigh_po w=350000u l=4e+06u
X291 avdd vss sky130_fd_pr__cap_mim_m3_2 l=3e+07u w=3e+07u
X292 avdd vss sky130_fd_pr__cap_mim_m3_2 l=3e+07u w=3e+07u
X293 dvdd vss sky130_fd_pr__cap_mim_m3_2 l=3e+07u w=3e+07u
X294 iin_15u vss sky130_fd_pr__cap_mim_m3_2 l=3e+07u w=3e+07u
X295 vss dvdd sky130_fd_pr__cap_mim_m3_2 l=1.6e+07u w=1.6e+07u
X296 a_n66616_41421# a_n65384_41103# vss sky130_fd_pr__res_xhigh_po w=350000u l=4e+06u
X297 vss dvdd sky130_fd_pr__cap_mim_m3_2 l=1.6e+07u w=1.6e+07u
X298 dvdd vss sky130_fd_pr__cap_mim_m3_2 l=3e+07u w=3e+07u
X299 avdd vss sky130_fd_pr__cap_mim_m3_2 l=3e+07u w=3e+07u
X300 avdd vss sky130_fd_pr__cap_mim_m3_2 l=3e+07u w=3e+07u
X301 a_n68715_58873# a_n67283_58555# vss sky130_fd_pr__res_xhigh_po w=350000u l=5e+06u
X302 avdd vss sky130_fd_pr__cap_mim_m3_2 l=3e+07u w=3e+07u
X303 dvdd vss sky130_fd_pr__cap_mim_m3_2 l=3e+07u w=3e+07u
X304 iin_15u vss sky130_fd_pr__cap_mim_m3_2 l=3e+07u w=3e+07u
X305 avdd vss sky130_fd_pr__cap_mim_m3_2 l=3e+07u w=3e+07u
X306 a_n74623_35024# a_n79461_37096# vss sky130_fd_pr__res_xhigh_po w=350000u l=5e+06u
X307 a_n60801_60857# a_n61221_57011# sky130_fd_pr__cap_mim_m3_1 l=3e+07u w=1.4e+07u
X308 dvdd vss sky130_fd_pr__cap_mim_m3_2 l=3e+07u w=3e+07u
X309 avdd vss sky130_fd_pr__cap_mim_m3_2 l=3e+07u w=3e+07u
X310 avdd vss sky130_fd_pr__cap_mim_m3_2 l=3e+07u w=3e+07u
X311 a_n21974_78024# a_n19274_72724# dvdd dvdd sky130_fd_pr__pfet_01v8 ad=0p pd=0u as=0p ps=0u w=5e+06u l=150000u M=8
X312 iin_15u vss sky130_fd_pr__cap_mim_m3_2 l=3e+07u w=3e+07u
X313 iin_15u vss sky130_fd_pr__cap_mim_m3_2 l=3e+07u w=3e+07u
X314 iin_15u vss sky130_fd_pr__cap_mim_m3_2 l=3e+07u w=3e+07u
X315 avdd vss sky130_fd_pr__cap_mim_m3_2 l=3e+07u w=3e+07u
X316 dvdd vss sky130_fd_pr__cap_mim_m3_2 l=3e+07u w=3e+07u
X317 avdd vss sky130_fd_pr__cap_mim_m3_2 l=3e+07u w=3e+07u
X318 a_n91733_42923# iin_15u vss vss sky130_fd_pr__nfet_01v8_lvt ad=0p pd=0u as=0p ps=0u w=4e+06u l=2e+06u M=8
X319 a_n68715_58873# a_n61221_57011# sky130_fd_pr__cap_mim_m3_1 l=1.75e+07u w=1.75e+07u
X320 avdd vss sky130_fd_pr__cap_mim_m3_2 l=3e+07u w=3e+07u
X321 avdd vss sky130_fd_pr__cap_mim_m3_2 l=3e+07u w=3e+07u
X322 dvdd vss sky130_fd_pr__cap_mim_m3_2 l=3e+07u w=3e+07u
X323 iin_15u vss sky130_fd_pr__cap_mim_m3_2 l=3e+07u w=3e+07u
X324 dvdd vss sky130_fd_pr__cap_mim_m3_2 l=3e+07u w=3e+07u
X325 dvdd vss sky130_fd_pr__cap_mim_m3_2 l=3e+07u w=3e+07u
X326 avdd vss sky130_fd_pr__cap_mim_m3_2 l=3e+07u w=3e+07u
X327 vss dvdd sky130_fd_pr__cap_mim_m3_2 l=1.6e+07u w=1.6e+07u
X328 vss a_n19274_72724# a_n21974_78024# vss sky130_fd_pr__nfet_01v8 ad=0p pd=0u as=0p ps=0u w=5e+06u l=150000u M=4
X329 dvdd vss sky130_fd_pr__cap_mim_m3_2 l=3e+07u w=3e+07u
X330 a_n68715_22815# a_n67283_23133# vss sky130_fd_pr__res_xhigh_po w=350000u l=5e+06u
X331 dvdd vss sky130_fd_pr__cap_mim_m3_2 l=3e+07u w=3e+07u
X332 iin_15u vss sky130_fd_pr__cap_mim_m3_2 l=3e+07u w=3e+07u
X333 dvdd vss sky130_fd_pr__cap_mim_m3_2 l=3e+07u w=3e+07u
X334 dvdd vss sky130_fd_pr__cap_mim_m3_2 l=3e+07u w=3e+07u
X335 dvdd vss sky130_fd_pr__cap_mim_m3_2 l=3e+07u w=3e+07u
X336 avdd vss sky130_fd_pr__cap_mim_m3_2 l=3e+07u w=3e+07u
X337 vss dvdd sky130_fd_pr__cap_mim_m3_2 l=1.6e+07u w=1.6e+07u
X338 iin_15u vss sky130_fd_pr__cap_mim_m3_2 l=3e+07u w=3e+07u
X339 dvdd vss sky130_fd_pr__cap_mim_m3_2 l=3e+07u w=3e+07u
X340 dvdd vss sky130_fd_pr__cap_mim_m3_2 l=3e+07u w=3e+07u
X341 a_n22016_77504# vss sky130_fd_pr__cap_mim_m3_1 l=1.775e+07u w=1.775e+07u
X342 iin_15u vss sky130_fd_pr__cap_mim_m3_2 l=3e+07u w=3e+07u
X343 dvdd vss sky130_fd_pr__cap_mim_m3_2 l=3e+07u w=3e+07u
X344 dvdd vss sky130_fd_pr__cap_mim_m3_2 l=3e+07u w=3e+07u
X345 dvdd vss sky130_fd_pr__cap_mim_m3_2 l=3e+07u w=3e+07u
X346 dvdd vss sky130_fd_pr__cap_mim_m3_2 l=3e+07u w=3e+07u
X347 iin_15u vss sky130_fd_pr__cap_mim_m3_2 l=3e+07u w=3e+07u
X348 a_n22016_76698# vss sky130_fd_pr__cap_mim_m3_1 l=1.775e+07u w=1.775e+07u
X349 a_n22542_77506# vcmp_p dvdd dvdd sky130_fd_pr__pfet_01v8 ad=0p pd=0u as=0p ps=0u w=2e+06u l=150000u
X350 dvdd vss sky130_fd_pr__cap_mim_m3_2 l=3e+07u w=3e+07u
X351 avdd vss sky130_fd_pr__cap_mim_m3_2 l=3e+07u w=3e+07u
X352 iin_15u vss sky130_fd_pr__cap_mim_m3_2 l=3e+07u w=3e+07u
X353 avdd vss sky130_fd_pr__cap_mim_m3_2 l=3e+07u w=3e+07u
X354 dvdd vss sky130_fd_pr__cap_mim_m3_2 l=3e+07u w=3e+07u
X355 avdd vss sky130_fd_pr__cap_mim_m3_2 l=3e+07u w=3e+07u
X356 iin_15u vss sky130_fd_pr__cap_mim_m3_2 l=3e+07u w=3e+07u
X357 avdd vss sky130_fd_pr__cap_mim_m3_2 l=3e+07u w=3e+07u
X358 vss iin_15u a_n91733_39491# vss sky130_fd_pr__nfet_01v8_lvt ad=0p pd=0u as=0p ps=0u w=4e+06u l=2e+06u M=8
X359 vss dvdd sky130_fd_pr__cap_mim_m3_2 l=1.6e+07u w=1.6e+07u
X360 dvdd vss sky130_fd_pr__cap_mim_m3_2 l=3e+07u w=3e+07u
X361 avdd vss sky130_fd_pr__cap_mim_m3_2 l=3e+07u w=3e+07u
X362 dvdd vss sky130_fd_pr__cap_mim_m3_2 l=3e+07u w=3e+07u
X363 avdd vss sky130_fd_pr__cap_mim_m3_2 l=3e+07u w=3e+07u
X364 iin_15u vss sky130_fd_pr__cap_mim_m3_2 l=3e+07u w=3e+07u
X365 iin_15u vss sky130_fd_pr__cap_mim_m3_2 l=3e+07u w=3e+07u
X366 a_n66616_40149# a_n65384_39831# vss sky130_fd_pr__res_xhigh_po w=350000u l=4e+06u
X367 a_n19274_6492# a_n22016_4346# dvdd dvdd sky130_fd_pr__pfet_01v8 ad=0p pd=0u as=0p ps=0u w=5e+06u l=150000u M=2
X368 a_n22016_3540# vss sky130_fd_pr__cap_mim_m3_1 l=1.775e+07u w=1.775e+07u
X369 dvdd vss sky130_fd_pr__cap_mim_m3_2 l=3e+07u w=3e+07u
X370 dvdd vss sky130_fd_pr__cap_mim_m3_2 l=3e+07u w=3e+07u
X371 avdd vss sky130_fd_pr__cap_mim_m3_2 l=3e+07u w=3e+07u
X372 vss dvdd sky130_fd_pr__cap_mim_m3_2 l=1.6e+07u w=1.6e+07u
X373 avdd vss sky130_fd_pr__cap_mim_m3_2 l=3e+07u w=3e+07u
X374 dvdd a_n19274_n434# a_n22132_4780# dvdd sky130_fd_pr__pfet_01v8 ad=0p pd=0u as=0p ps=0u w=5e+06u l=150000u M=8
X375 dvdd vss sky130_fd_pr__cap_mim_m3_2 l=3e+07u w=3e+07u
X376 dvdd vss sky130_fd_pr__cap_mim_m3_2 l=3e+07u w=3e+07u
X377 avdd vss sky130_fd_pr__cap_mim_m3_2 l=3e+07u w=3e+07u
X378 avdd vss sky130_fd_pr__cap_mim_m3_2 l=3e+07u w=3e+07u