* NGSPICE file created from triangle_wrong.ext - technology: sky130A

.subckt OTA vdd vp vn vbias vss vout
X0 vss a_n6538_n5814# vout vss sky130_fd_pr__nfet_01v8_lvt ad=0p pd=0u as=0p ps=0u w=3e+06u l=350000u
X1 vout vbias vdd vdd sky130_fd_pr__pfet_01v8_lvt ad=0p pd=0u as=0p ps=0u w=4e+06u l=2e+06u
X2 a_n3094_n11100# vp a_n6538_n5814# vdd sky130_fd_pr__pfet_01v8_lvt ad=0p pd=0u as=0p ps=0u w=4e+06u l=350000u
X3 vss a_n6538_n5814# vout vss sky130_fd_pr__nfet_01v8_lvt ad=0p pd=0u as=0p ps=0u w=3e+06u l=350000u
X4 vdd vbias vbias vdd sky130_fd_pr__pfet_01v8_lvt ad=0p pd=0u as=0p ps=0u w=4e+06u l=2e+06u
X5 vout a_n6538_n5814# vss vss sky130_fd_pr__nfet_01v8_lvt ad=0p pd=0u as=0p ps=0u w=3e+06u l=350000u
X6 vout a_4367_n15411# sky130_fd_pr__cap_mim_m3_1 l=1.35e+07u w=1.35e+07u
X7 vss a_n2720_n15566# a_n2720_n15566# vss sky130_fd_pr__nfet_01v8_lvt ad=0p pd=0u as=0p ps=0u w=3e+06u l=350000u
X8 vdd vbias vout vdd sky130_fd_pr__pfet_01v8_lvt ad=0p pd=0u as=0p ps=0u w=4e+06u l=2e+06u
X9 vout vbias vdd vdd sky130_fd_pr__pfet_01v8_lvt ad=0p pd=0u as=0p ps=0u w=4e+06u l=2e+06u
X10 vss a_n6538_n5814# vout vss sky130_fd_pr__nfet_01v8_lvt ad=0p pd=0u as=0p ps=0u w=3e+06u l=350000u
X11 vout vbias vdd vdd sky130_fd_pr__pfet_01v8_lvt ad=0p pd=0u as=0p ps=0u w=4e+06u l=2e+06u
X12 vss a_n6538_n5814# vout vss sky130_fd_pr__nfet_01v8_lvt ad=0p pd=0u as=0p ps=0u w=3e+06u l=350000u
X13 vout vbias vdd vdd sky130_fd_pr__pfet_01v8_lvt ad=0p pd=0u as=0p ps=0u w=4e+06u l=2e+06u
X14 vout vbias vdd vdd sky130_fd_pr__pfet_01v8_lvt ad=0p pd=0u as=0p ps=0u w=4e+06u l=2e+06u
X15 a_n2720_n15566# a_n2720_n15566# vss vss sky130_fd_pr__nfet_01v8_lvt ad=0p pd=0u as=0p ps=0u w=3e+06u l=350000u
X16 a_n6538_n5814# vp a_n3094_n11100# vdd sky130_fd_pr__pfet_01v8_lvt ad=0p pd=0u as=0p ps=0u w=4e+06u l=350000u
X17 vss a_n6538_n5814# vout vss sky130_fd_pr__nfet_01v8_lvt ad=0p pd=0u as=0p ps=0u w=3e+06u l=350000u
X18 vout vbias vdd vdd sky130_fd_pr__pfet_01v8_lvt ad=0p pd=0u as=0p ps=0u w=4e+06u l=2e+06u
X19 vout vbias vdd vdd sky130_fd_pr__pfet_01v8_lvt ad=0p pd=0u as=0p ps=0u w=4e+06u l=2e+06u
X20 vdd vbias vout vdd sky130_fd_pr__pfet_01v8_lvt ad=0p pd=0u as=0p ps=0u w=4e+06u l=2e+06u
X21 vout vbias vdd vdd sky130_fd_pr__pfet_01v8_lvt ad=0p pd=0u as=0p ps=0u w=4e+06u l=2e+06u
X22 vdd vbias vout vdd sky130_fd_pr__pfet_01v8_lvt ad=0p pd=0u as=0p ps=0u w=4e+06u l=2e+06u
X23 vdd vbias vout vdd sky130_fd_pr__pfet_01v8_lvt ad=0p pd=0u as=0p ps=0u w=4e+06u l=2e+06u
X24 vdd vbias vout vdd sky130_fd_pr__pfet_01v8_lvt ad=0p pd=0u as=0p ps=0u w=4e+06u l=2e+06u
X25 vout vbias vdd vdd sky130_fd_pr__pfet_01v8_lvt ad=0p pd=0u as=0p ps=0u w=4e+06u l=2e+06u
X26 vss a_n6538_n5814# vout vss sky130_fd_pr__nfet_01v8_lvt ad=0p pd=0u as=0p ps=0u w=3e+06u l=350000u
X27 vss a_n6538_n5814# vout vss sky130_fd_pr__nfet_01v8_lvt ad=0p pd=0u as=0p ps=0u w=3e+06u l=350000u
X28 vdd vbias vout vdd sky130_fd_pr__pfet_01v8_lvt ad=0p pd=0u as=0p ps=0u w=4e+06u l=2e+06u
X29 vout vbias vdd vdd sky130_fd_pr__pfet_01v8_lvt ad=0p pd=0u as=0p ps=0u w=4e+06u l=2e+06u
X30 vout vbias vdd vdd sky130_fd_pr__pfet_01v8_lvt ad=0p pd=0u as=0p ps=0u w=4e+06u l=2e+06u
X31 vdd vbias vout vdd sky130_fd_pr__pfet_01v8_lvt ad=0p pd=0u as=0p ps=0u w=4e+06u l=2e+06u
X32 vdd vbias vout vdd sky130_fd_pr__pfet_01v8_lvt ad=0p pd=0u as=0p ps=0u w=4e+06u l=2e+06u
X33 vss a_n6538_n5814# vout vss sky130_fd_pr__nfet_01v8_lvt ad=0p pd=0u as=0p ps=0u w=3e+06u l=350000u
X34 vss a_n6538_n5814# vout vss sky130_fd_pr__nfet_01v8_lvt ad=0p pd=0u as=0p ps=0u w=3e+06u l=350000u
X35 vout vbias vdd vdd sky130_fd_pr__pfet_01v8_lvt ad=0p pd=0u as=0p ps=0u w=4e+06u l=2e+06u
X36 vdd vbias vout vdd sky130_fd_pr__pfet_01v8_lvt ad=0p pd=0u as=0p ps=0u w=4e+06u l=2e+06u
X37 vout vbias vdd vdd sky130_fd_pr__pfet_01v8_lvt ad=0p pd=0u as=0p ps=0u w=4e+06u l=2e+06u
X38 a_n6538_n5814# a_n2720_n15566# vss vss sky130_fd_pr__nfet_01v8_lvt ad=0p pd=0u as=0p ps=0u w=3e+06u l=350000u
X39 a_n3094_n11100# vn a_n2720_n15566# vdd sky130_fd_pr__pfet_01v8_lvt ad=0p pd=0u as=0p ps=0u w=4e+06u l=350000u
X40 vss a_n6538_n5814# vout vss sky130_fd_pr__nfet_01v8_lvt ad=0p pd=0u as=0p ps=0u w=3e+06u l=350000u
X41 vout vbias vdd vdd sky130_fd_pr__pfet_01v8_lvt ad=0p pd=0u as=0p ps=0u w=4e+06u l=2e+06u
X42 vss a_n2720_n15566# a_n6538_n5814# vss sky130_fd_pr__nfet_01v8_lvt ad=0p pd=0u as=0p ps=0u w=3e+06u l=350000u
X43 a_n3094_n11100# vp a_n6538_n5814# vdd sky130_fd_pr__pfet_01v8_lvt ad=0p pd=0u as=0p ps=0u w=4e+06u l=350000u
X44 vdd vbias vout vdd sky130_fd_pr__pfet_01v8_lvt ad=0p pd=0u as=0p ps=0u w=4e+06u l=2e+06u
X45 vout a_n6538_n5814# vss vss sky130_fd_pr__nfet_01v8_lvt ad=0p pd=0u as=0p ps=0u w=3e+06u l=350000u
X46 vdd vbias vout vdd sky130_fd_pr__pfet_01v8_lvt ad=0p pd=0u as=0p ps=0u w=4e+06u l=2e+06u
X47 vout a_n6538_n5814# vss vss sky130_fd_pr__nfet_01v8_lvt ad=0p pd=0u as=0p ps=0u w=3e+06u l=350000u
X48 vss a_n6538_n5814# vout vss sky130_fd_pr__nfet_01v8_lvt ad=0p pd=0u as=0p ps=0u w=3e+06u l=350000u
X49 vout a_n6538_n5814# vss vss sky130_fd_pr__nfet_01v8_lvt ad=0p pd=0u as=0p ps=0u w=3e+06u l=350000u
X50 vdd vbias vout vdd sky130_fd_pr__pfet_01v8_lvt ad=0p pd=0u as=0p ps=0u w=4e+06u l=2e+06u
X51 a_n2720_n15566# vn a_n3094_n11100# vdd sky130_fd_pr__pfet_01v8_lvt ad=0p pd=0u as=0p ps=0u w=4e+06u l=350000u
X52 vout vbias vdd vdd sky130_fd_pr__pfet_01v8_lvt ad=0p pd=0u as=0p ps=0u w=4e+06u l=2e+06u
X53 a_n2720_n15566# vn a_n3094_n11100# vdd sky130_fd_pr__pfet_01v8_lvt ad=0p pd=0u as=0p ps=0u w=4e+06u l=350000u
X54 a_n6538_n5814# vp a_n3094_n11100# vdd sky130_fd_pr__pfet_01v8_lvt ad=0p pd=0u as=0p ps=0u w=4e+06u l=350000u
X55 vdd vbias vout vdd sky130_fd_pr__pfet_01v8_lvt ad=0p pd=0u as=0p ps=0u w=4e+06u l=2e+06u
X56 vdd vbias vout vdd sky130_fd_pr__pfet_01v8_lvt ad=0p pd=0u as=0p ps=0u w=4e+06u l=2e+06u
X57 vdd vbias vout vdd sky130_fd_pr__pfet_01v8_lvt ad=0p pd=0u as=0p ps=0u w=4e+06u l=2e+06u
X58 vout vbias vdd vdd sky130_fd_pr__pfet_01v8_lvt ad=0p pd=0u as=0p ps=0u w=4e+06u l=2e+06u
X59 vout a_n6538_n5814# vss vss sky130_fd_pr__nfet_01v8_lvt ad=0p pd=0u as=0p ps=0u w=3e+06u l=350000u
X60 vout vbias vdd vdd sky130_fd_pr__pfet_01v8_lvt ad=0p pd=0u as=0p ps=0u w=4e+06u l=2e+06u
X61 vss a_n6538_n5814# vout vss sky130_fd_pr__nfet_01v8_lvt ad=0p pd=0u as=0p ps=0u w=3e+06u l=350000u
X62 vout vbias vdd vdd sky130_fd_pr__pfet_01v8_lvt ad=0p pd=0u as=0p ps=0u w=4e+06u l=2e+06u
X63 vdd vbias vout vdd sky130_fd_pr__pfet_01v8_lvt ad=0p pd=0u as=0p ps=0u w=4e+06u l=2e+06u
X64 vdd vbias vout vdd sky130_fd_pr__pfet_01v8_lvt ad=0p pd=0u as=0p ps=0u w=4e+06u l=2e+06u
X65 vdd vbias vout vdd sky130_fd_pr__pfet_01v8_lvt ad=0p pd=0u as=0p ps=0u w=4e+06u l=2e+06u
X66 vout vbias vdd vdd sky130_fd_pr__pfet_01v8_lvt ad=0p pd=0u as=0p ps=0u w=4e+06u l=2e+06u
X67 vdd vbias vout vdd sky130_fd_pr__pfet_01v8_lvt ad=0p pd=0u as=0p ps=0u w=4e+06u l=2e+06u
X68 a_n3094_n11100# vn a_n2720_n15566# vdd sky130_fd_pr__pfet_01v8_lvt ad=0p pd=0u as=0p ps=0u w=4e+06u l=350000u
X69 vout vbias vdd vdd sky130_fd_pr__pfet_01v8_lvt ad=0p pd=0u as=0p ps=0u w=4e+06u l=2e+06u
X70 vdd vbias vout vdd sky130_fd_pr__pfet_01v8_lvt ad=0p pd=0u as=0p ps=0u w=4e+06u l=2e+06u
X71 vout a_n6538_n5814# vss vss sky130_fd_pr__nfet_01v8_lvt ad=0p pd=0u as=0p ps=0u w=3e+06u l=350000u
X72 vout vbias vdd vdd sky130_fd_pr__pfet_01v8_lvt ad=0p pd=0u as=0p ps=0u w=4e+06u l=2e+06u
X73 vss a_n6538_n5814# vout vss sky130_fd_pr__nfet_01v8_lvt ad=0p pd=0u as=0p ps=0u w=3e+06u l=350000u
X74 vdd vbias vout vdd sky130_fd_pr__pfet_01v8_lvt ad=0p pd=0u as=0p ps=0u w=4e+06u l=2e+06u
X75 vdd vbias vout vdd sky130_fd_pr__pfet_01v8_lvt ad=0p pd=0u as=0p ps=0u w=4e+06u l=2e+06u
X76 vout a_n6538_n5814# vss vss sky130_fd_pr__nfet_01v8_lvt ad=0p pd=0u as=0p ps=0u w=3e+06u l=350000u
X77 vout vbias vdd vdd sky130_fd_pr__pfet_01v8_lvt ad=0p pd=0u as=0p ps=0u w=4e+06u l=2e+06u
X78 vout vbias vdd vdd sky130_fd_pr__pfet_01v8_lvt ad=0p pd=0u as=0p ps=0u w=4e+06u l=2e+06u
X79 vout a_n6538_n5814# vss vss sky130_fd_pr__nfet_01v8_lvt ad=0p pd=0u as=0p ps=0u w=3e+06u l=350000u
X80 vdd vbias vout vdd sky130_fd_pr__pfet_01v8_lvt ad=0p pd=0u as=0p ps=0u w=4e+06u l=2e+06u
X81 vout a_n6538_n5814# vss vss sky130_fd_pr__nfet_01v8_lvt ad=0p pd=0u as=0p ps=0u w=3e+06u l=350000u
X82 a_n3094_n11100# vp a_n6538_n5814# vdd sky130_fd_pr__pfet_01v8_lvt ad=0p pd=0u as=0p ps=0u w=4e+06u l=350000u
X83 vss a_n6538_n5814# vout vss sky130_fd_pr__nfet_01v8_lvt ad=0p pd=0u as=0p ps=0u w=3e+06u l=350000u
X84 vout vbias vdd vdd sky130_fd_pr__pfet_01v8_lvt ad=0p pd=0u as=0p ps=0u w=4e+06u l=2e+06u
X85 vout a_n6538_n5814# vss vss sky130_fd_pr__nfet_01v8_lvt ad=0p pd=0u as=0p ps=0u w=3e+06u l=350000u
X86 vout vbias vdd vdd sky130_fd_pr__pfet_01v8_lvt ad=0p pd=0u as=0p ps=0u w=4e+06u l=2e+06u
X87 vout vbias vdd vdd sky130_fd_pr__pfet_01v8_lvt ad=0p pd=0u as=0p ps=0u w=4e+06u l=2e+06u
X88 vout a_n6538_n5814# vss vss sky130_fd_pr__nfet_01v8_lvt ad=0p pd=0u as=0p ps=0u w=3e+06u l=350000u
X89 vdd vbias vout vdd sky130_fd_pr__pfet_01v8_lvt ad=0p pd=0u as=0p ps=0u w=4e+06u l=2e+06u
X90 vout vbias vdd vdd sky130_fd_pr__pfet_01v8_lvt ad=0p pd=0u as=0p ps=0u w=4e+06u l=2e+06u
X91 vout vbias vdd vdd sky130_fd_pr__pfet_01v8_lvt ad=0p pd=0u as=0p ps=0u w=4e+06u l=2e+06u
X92 vss a_n6538_n5814# vout vss sky130_fd_pr__nfet_01v8_lvt ad=0p pd=0u as=0p ps=0u w=3e+06u l=350000u
X93 vout a_n6538_n5814# vss vss sky130_fd_pr__nfet_01v8_lvt ad=0p pd=0u as=0p ps=0u w=3e+06u l=350000u
X94 vout vbias vdd vdd sky130_fd_pr__pfet_01v8_lvt ad=0p pd=0u as=0p ps=0u w=4e+06u l=2e+06u
X95 vss a_n6538_n5814# vout vss sky130_fd_pr__nfet_01v8_lvt ad=0p pd=0u as=0p ps=0u w=3e+06u l=350000u
X96 vout vbias vdd vdd sky130_fd_pr__pfet_01v8_lvt ad=0p pd=0u as=0p ps=0u w=4e+06u l=2e+06u
X97 vout vbias vdd vdd sky130_fd_pr__pfet_01v8_lvt ad=0p pd=0u as=0p ps=0u w=4e+06u l=2e+06u
X98 vdd vbias vout vdd sky130_fd_pr__pfet_01v8_lvt ad=0p pd=0u as=0p ps=0u w=4e+06u l=2e+06u
X99 vout vbias vdd vdd sky130_fd_pr__pfet_01v8_lvt ad=0p pd=0u as=0p ps=0u w=4e+06u l=2e+06u
X100 vout a_n6538_n5814# vss vss sky130_fd_pr__nfet_01v8_lvt ad=0p pd=0u as=0p ps=0u w=3e+06u l=350000u
X101 vout a_n6538_n5814# vss vss sky130_fd_pr__nfet_01v8_lvt ad=0p pd=0u as=0p ps=0u w=3e+06u l=350000u
X102 a_n6538_n5814# vp a_n3094_n11100# vdd sky130_fd_pr__pfet_01v8_lvt ad=0p pd=0u as=0p ps=0u w=4e+06u l=350000u
X103 vss a_n6538_n5814# vout vss sky130_fd_pr__nfet_01v8_lvt ad=0p pd=0u as=0p ps=0u w=3e+06u l=350000u
X104 vout a_n6538_n5814# vss vss sky130_fd_pr__nfet_01v8_lvt ad=0p pd=0u as=0p ps=0u w=3e+06u l=350000u
X105 vout vbias vdd vdd sky130_fd_pr__pfet_01v8_lvt ad=0p pd=0u as=0p ps=0u w=4e+06u l=2e+06u
X106 vout vbias vdd vdd sky130_fd_pr__pfet_01v8_lvt ad=0p pd=0u as=0p ps=0u w=4e+06u l=2e+06u
X107 vss a_n6538_n5814# vout vss sky130_fd_pr__nfet_01v8_lvt ad=0p pd=0u as=0p ps=0u w=3e+06u l=350000u
X108 vout vbias vdd vdd sky130_fd_pr__pfet_01v8_lvt ad=0p pd=0u as=0p ps=0u w=4e+06u l=2e+06u
X109 vdd vbias vout vdd sky130_fd_pr__pfet_01v8_lvt ad=0p pd=0u as=0p ps=0u w=4e+06u l=2e+06u
X110 vout a_n6538_n5814# vss vss sky130_fd_pr__nfet_01v8_lvt ad=0p pd=0u as=0p ps=0u w=3e+06u l=350000u
X111 vdd vbias vout vdd sky130_fd_pr__pfet_01v8_lvt ad=0p pd=0u as=0p ps=0u w=4e+06u l=2e+06u
X112 vdd vbias vout vdd sky130_fd_pr__pfet_01v8_lvt ad=0p pd=0u as=0p ps=0u w=4e+06u l=2e+06u
X113 vss a_n6538_n5814# vout vss sky130_fd_pr__nfet_01v8_lvt ad=0p pd=0u as=0p ps=0u w=3e+06u l=350000u
X114 vout a_n6538_n5814# vss vss sky130_fd_pr__nfet_01v8_lvt ad=0p pd=0u as=0p ps=0u w=3e+06u l=350000u
X115 vdd vbias vout vdd sky130_fd_pr__pfet_01v8_lvt ad=0p pd=0u as=0p ps=0u w=4e+06u l=2e+06u
X116 a_n3094_n11100# vn a_n2720_n15566# vdd sky130_fd_pr__pfet_01v8_lvt ad=0p pd=0u as=0p ps=0u w=4e+06u l=350000u
X117 vdd vbias vout vdd sky130_fd_pr__pfet_01v8_lvt ad=0p pd=0u as=0p ps=0u w=4e+06u l=2e+06u
X118 vout a_n6538_n5814# vss vss sky130_fd_pr__nfet_01v8_lvt ad=0p pd=0u as=0p ps=0u w=3e+06u l=350000u
X119 a_n3094_n11100# vp a_n6538_n5814# vdd sky130_fd_pr__pfet_01v8_lvt ad=0p pd=0u as=0p ps=0u w=4e+06u l=350000u
X120 vss a_n6538_n5814# vout vss sky130_fd_pr__nfet_01v8_lvt ad=0p pd=0u as=0p ps=0u w=3e+06u l=350000u
X121 a_n2720_n15566# vn a_n3094_n11100# vdd sky130_fd_pr__pfet_01v8_lvt ad=0p pd=0u as=0p ps=0u w=4e+06u l=350000u
X122 vout vbias vdd vdd sky130_fd_pr__pfet_01v8_lvt ad=0p pd=0u as=0p ps=0u w=4e+06u l=2e+06u
X123 a_n6538_n5814# vp a_n3094_n11100# vdd sky130_fd_pr__pfet_01v8_lvt ad=0p pd=0u as=0p ps=0u w=4e+06u l=350000u
X124 vdd vbias vout vdd sky130_fd_pr__pfet_01v8_lvt ad=0p pd=0u as=0p ps=0u w=4e+06u l=2e+06u
X125 vout a_n6538_n5814# vss vss sky130_fd_pr__nfet_01v8_lvt ad=0p pd=0u as=0p ps=0u w=3e+06u l=350000u
X126 vdd vbias vbias vdd sky130_fd_pr__pfet_01v8_lvt ad=0p pd=0u as=0p ps=0u w=4e+06u l=2e+06u
X127 vdd vbias vout vdd sky130_fd_pr__pfet_01v8_lvt ad=0p pd=0u as=0p ps=0u w=4e+06u l=2e+06u
X128 vss a_n6538_n5814# vout vss sky130_fd_pr__nfet_01v8_lvt ad=0p pd=0u as=0p ps=0u w=3e+06u l=350000u
X129 vout vbias vdd vdd sky130_fd_pr__pfet_01v8_lvt ad=0p pd=0u as=0p ps=0u w=4e+06u l=2e+06u
X130 vss a_n6538_n5814# vout vss sky130_fd_pr__nfet_01v8_lvt ad=0p pd=0u as=0p ps=0u w=3e+06u l=350000u
X131 vdd vbias vout vdd sky130_fd_pr__pfet_01v8_lvt ad=0p pd=0u as=0p ps=0u w=4e+06u l=2e+06u
X132 vbias vbias vdd vdd sky130_fd_pr__pfet_01v8_lvt ad=0p pd=0u as=0p ps=0u w=4e+06u l=2e+06u
X133 vout a_n6538_n5814# vss vss sky130_fd_pr__nfet_01v8_lvt ad=0p pd=0u as=0p ps=0u w=3e+06u l=350000u
X134 a_n2720_n15566# vn a_n3094_n11100# vdd sky130_fd_pr__pfet_01v8_lvt ad=0p pd=0u as=0p ps=0u w=4e+06u l=350000u
X135 vout vbias vdd vdd sky130_fd_pr__pfet_01v8_lvt ad=0p pd=0u as=0p ps=0u w=4e+06u l=2e+06u
X136 vss a_n6538_n5814# vout vss sky130_fd_pr__nfet_01v8_lvt ad=0p pd=0u as=0p ps=0u w=3e+06u l=350000u
X137 vdd vbias vout vdd sky130_fd_pr__pfet_01v8_lvt ad=0p pd=0u as=0p ps=0u w=4e+06u l=2e+06u
X138 vss a_n2720_n15566# a_n6538_n5814# vss sky130_fd_pr__nfet_01v8_lvt ad=0p pd=0u as=0p ps=0u w=3e+06u l=350000u
X139 a_n3094_n11100# vbias vdd vdd sky130_fd_pr__pfet_01v8_lvt ad=0p pd=0u as=0p ps=0u w=4e+06u l=2e+06u
X140 vss a_n6538_n5814# vout vss sky130_fd_pr__nfet_01v8_lvt ad=0p pd=0u as=0p ps=0u w=3e+06u l=350000u
X141 vout vbias vdd vdd sky130_fd_pr__pfet_01v8_lvt ad=0p pd=0u as=0p ps=0u w=4e+06u l=2e+06u
X142 vbias vbias vdd vdd sky130_fd_pr__pfet_01v8_lvt ad=0p pd=0u as=0p ps=0u w=4e+06u l=2e+06u
X143 vout a_n6538_n5814# vss vss sky130_fd_pr__nfet_01v8_lvt ad=0p pd=0u as=0p ps=0u w=3e+06u l=350000u
X144 vout a_n6538_n5814# vss vss sky130_fd_pr__nfet_01v8_lvt ad=0p pd=0u as=0p ps=0u w=3e+06u l=350000u
X145 vout vbias vdd vdd sky130_fd_pr__pfet_01v8_lvt ad=0p pd=0u as=0p ps=0u w=4e+06u l=2e+06u
X146 vss a_n6538_n5814# vout vss sky130_fd_pr__nfet_01v8_lvt ad=0p pd=0u as=0p ps=0u w=3e+06u l=350000u
X147 vout a_n6538_n5814# vss vss sky130_fd_pr__nfet_01v8_lvt ad=0p pd=0u as=0p ps=0u w=3e+06u l=350000u
X148 vss a_n6538_n5814# vout vss sky130_fd_pr__nfet_01v8_lvt ad=0p pd=0u as=0p ps=0u w=3e+06u l=350000u
X149 vdd vbias vout vdd sky130_fd_pr__pfet_01v8_lvt ad=0p pd=0u as=0p ps=0u w=4e+06u l=2e+06u
X150 vout vbias vdd vdd sky130_fd_pr__pfet_01v8_lvt ad=0p pd=0u as=0p ps=0u w=4e+06u l=2e+06u
X151 a_n3094_n11100# vn a_n2720_n15566# vdd sky130_fd_pr__pfet_01v8_lvt ad=0p pd=0u as=0p ps=0u w=4e+06u l=350000u
X152 a_n3094_n11100# vbias vdd vdd sky130_fd_pr__pfet_01v8_lvt ad=0p pd=0u as=0p ps=0u w=4e+06u l=2e+06u
X153 vdd vbias vout vdd sky130_fd_pr__pfet_01v8_lvt ad=0p pd=0u as=0p ps=0u w=4e+06u l=2e+06u
X154 vss a_n6538_n5814# vout vss sky130_fd_pr__nfet_01v8_lvt ad=0p pd=0u as=0p ps=0u w=3e+06u l=350000u
X155 vout vbias vdd vdd sky130_fd_pr__pfet_01v8_lvt ad=0p pd=0u as=0p ps=0u w=4e+06u l=2e+06u
X156 vdd vbias vout vdd sky130_fd_pr__pfet_01v8_lvt ad=0p pd=0u as=0p ps=0u w=4e+06u l=2e+06u
X157 vss a_n6538_n5814# vout vss sky130_fd_pr__nfet_01v8_lvt ad=0p pd=0u as=0p ps=0u w=3e+06u l=350000u
X158 vdd vbias vout vdd sky130_fd_pr__pfet_01v8_lvt ad=0p pd=0u as=0p ps=0u w=4e+06u l=2e+06u
X159 vss a_n2720_n15566# a_n2720_n15566# vss sky130_fd_pr__nfet_01v8_lvt ad=0p pd=0u as=0p ps=0u w=3e+06u l=350000u
X160 vout vbias vdd vdd sky130_fd_pr__pfet_01v8_lvt ad=0p pd=0u as=0p ps=0u w=4e+06u l=2e+06u
X161 vss a_n6538_n5814# vout vss sky130_fd_pr__nfet_01v8_lvt ad=0p pd=0u as=0p ps=0u w=3e+06u l=350000u
X162 a_n2720_n15566# a_n2720_n15566# vss vss sky130_fd_pr__nfet_01v8_lvt ad=0p pd=0u as=0p ps=0u w=3e+06u l=350000u
X163 vdd vbias vbias vdd sky130_fd_pr__pfet_01v8_lvt ad=0p pd=0u as=0p ps=0u w=4e+06u l=2e+06u
X164 a_n3094_n11100# vp a_n6538_n5814# vdd sky130_fd_pr__pfet_01v8_lvt ad=0p pd=0u as=0p ps=0u w=4e+06u l=350000u
X165 vbias vbias vdd vdd sky130_fd_pr__pfet_01v8_lvt ad=0p pd=0u as=0p ps=0u w=4e+06u l=2e+06u
X166 vdd vbias vout vdd sky130_fd_pr__pfet_01v8_lvt ad=0p pd=0u as=0p ps=0u w=4e+06u l=2e+06u
X167 vout vbias vdd vdd sky130_fd_pr__pfet_01v8_lvt ad=0p pd=0u as=0p ps=0u w=4e+06u l=2e+06u
X168 vss a_n6538_n5814# vout vss sky130_fd_pr__nfet_01v8_lvt ad=0p pd=0u as=0p ps=0u w=3e+06u l=350000u
X169 vdd vbias a_n3094_n11100# vdd sky130_fd_pr__pfet_01v8_lvt ad=0p pd=0u as=0p ps=0u w=4e+06u l=2e+06u
X170 vdd vbias vbias vdd sky130_fd_pr__pfet_01v8_lvt ad=0p pd=0u as=0p ps=0u w=4e+06u l=2e+06u
X171 vbias vbias vdd vdd sky130_fd_pr__pfet_01v8_lvt ad=0p pd=0u as=0p ps=0u w=4e+06u l=2e+06u
X172 vdd vbias a_n3094_n11100# vdd sky130_fd_pr__pfet_01v8_lvt ad=0p pd=0u as=0p ps=0u w=4e+06u l=2e+06u
X173 vbias vbias vdd vdd sky130_fd_pr__pfet_01v8_lvt ad=0p pd=0u as=0p ps=0u w=4e+06u l=2e+06u
X174 vout vbias vdd vdd sky130_fd_pr__pfet_01v8_lvt ad=0p pd=0u as=0p ps=0u w=4e+06u l=2e+06u
X175 vbias vbias vdd vdd sky130_fd_pr__pfet_01v8_lvt ad=0p pd=0u as=0p ps=0u w=4e+06u l=2e+06u
X176 vout a_n6538_n5814# vss vss sky130_fd_pr__nfet_01v8_lvt ad=0p pd=0u as=0p ps=0u w=3e+06u l=350000u
X177 vss a_n6538_n5814# vout vss sky130_fd_pr__nfet_01v8_lvt ad=0p pd=0u as=0p ps=0u w=3e+06u l=350000u
X178 a_n6538_n5814# a_n2720_n15566# vss vss sky130_fd_pr__nfet_01v8_lvt ad=0p pd=0u as=0p ps=0u w=3e+06u l=350000u
X179 vss a_n6538_n5814# vout vss sky130_fd_pr__nfet_01v8_lvt ad=0p pd=0u as=0p ps=0u w=3e+06u l=350000u
X180 vdd vbias a_n3094_n11100# vdd sky130_fd_pr__pfet_01v8_lvt ad=0p pd=0u as=0p ps=0u w=4e+06u l=2e+06u
X181 vdd vbias vout vdd sky130_fd_pr__pfet_01v8_lvt ad=0p pd=0u as=0p ps=0u w=4e+06u l=2e+06u
X182 vout vbias vdd vdd sky130_fd_pr__pfet_01v8_lvt ad=0p pd=0u as=0p ps=0u w=4e+06u l=2e+06u
X183 a_n6538_n5814# vp a_n3094_n11100# vdd sky130_fd_pr__pfet_01v8_lvt ad=0p pd=0u as=0p ps=0u w=4e+06u l=350000u
X184 vout a_n6538_n5814# vss vss sky130_fd_pr__nfet_01v8_lvt ad=0p pd=0u as=0p ps=0u w=3e+06u l=350000u
X185 vout vbias vdd vdd sky130_fd_pr__pfet_01v8_lvt ad=0p pd=0u as=0p ps=0u w=4e+06u l=2e+06u
X186 vout a_n6538_n5814# vss vss sky130_fd_pr__nfet_01v8_lvt ad=0p pd=0u as=0p ps=0u w=3e+06u l=350000u
X187 vout vbias vdd vdd sky130_fd_pr__pfet_01v8_lvt ad=0p pd=0u as=0p ps=0u w=4e+06u l=2e+06u
X188 vdd vbias vout vdd sky130_fd_pr__pfet_01v8_lvt ad=0p pd=0u as=0p ps=0u w=4e+06u l=2e+06u
X189 vout a_n6538_n5814# vss vss sky130_fd_pr__nfet_01v8_lvt ad=0p pd=0u as=0p ps=0u w=3e+06u l=350000u
X190 a_n3094_n11100# vn a_n2720_n15566# vdd sky130_fd_pr__pfet_01v8_lvt ad=0p pd=0u as=0p ps=0u w=4e+06u l=350000u
X191 vdd vbias vout vdd sky130_fd_pr__pfet_01v8_lvt ad=0p pd=0u as=0p ps=0u w=4e+06u l=2e+06u
X192 vout vbias vdd vdd sky130_fd_pr__pfet_01v8_lvt ad=0p pd=0u as=0p ps=0u w=4e+06u l=2e+06u
X193 a_n3094_n11100# vp a_n6538_n5814# vdd sky130_fd_pr__pfet_01v8_lvt ad=0p pd=0u as=0p ps=0u w=4e+06u l=350000u
X194 vdd vbias vout vdd sky130_fd_pr__pfet_01v8_lvt ad=0p pd=0u as=0p ps=0u w=4e+06u l=2e+06u
X195 vout vbias vdd vdd sky130_fd_pr__pfet_01v8_lvt ad=0p pd=0u as=0p ps=0u w=4e+06u l=2e+06u
X196 vout vbias vdd vdd sky130_fd_pr__pfet_01v8_lvt ad=0p pd=0u as=0p ps=0u w=4e+06u l=2e+06u
X197 vdd vbias vout vdd sky130_fd_pr__pfet_01v8_lvt ad=0p pd=0u as=0p ps=0u w=4e+06u l=2e+06u
X198 vdd vbias vout vdd sky130_fd_pr__pfet_01v8_lvt ad=0p pd=0u as=0p ps=0u w=4e+06u l=2e+06u
X199 vout a_n6538_n5814# vss vss sky130_fd_pr__nfet_01v8_lvt ad=0p pd=0u as=0p ps=0u w=3e+06u l=350000u
X200 vout a_n6538_n5814# vss vss sky130_fd_pr__nfet_01v8_lvt ad=0p pd=0u as=0p ps=0u w=3e+06u l=350000u
X201 vout a_n6538_n5814# vss vss sky130_fd_pr__nfet_01v8_lvt ad=0p pd=0u as=0p ps=0u w=3e+06u l=350000u
X202 vss a_n6538_n5814# vout vss sky130_fd_pr__nfet_01v8_lvt ad=0p pd=0u as=0p ps=0u w=3e+06u l=350000u
X203 vdd vbias vout vdd sky130_fd_pr__pfet_01v8_lvt ad=0p pd=0u as=0p ps=0u w=4e+06u l=2e+06u
X204 vout vbias vdd vdd sky130_fd_pr__pfet_01v8_lvt ad=0p pd=0u as=0p ps=0u w=4e+06u l=2e+06u
X205 vdd vbias vout vdd sky130_fd_pr__pfet_01v8_lvt ad=0p pd=0u as=0p ps=0u w=4e+06u l=2e+06u
X206 a_n6538_n5814# a_4367_n15411# vss sky130_fd_pr__res_xhigh_po w=350000u l=500000u
X207 vdd vbias vbias vdd sky130_fd_pr__pfet_01v8_lvt ad=0p pd=0u as=0p ps=0u w=4e+06u l=2e+06u
X208 vdd vbias vout vdd sky130_fd_pr__pfet_01v8_lvt ad=0p pd=0u as=0p ps=0u w=4e+06u l=2e+06u
X209 a_n2720_n15566# vn a_n3094_n11100# vdd sky130_fd_pr__pfet_01v8_lvt ad=0p pd=0u as=0p ps=0u w=4e+06u l=350000u
X210 vout a_n6538_n5814# vss vss sky130_fd_pr__nfet_01v8_lvt ad=0p pd=0u as=0p ps=0u w=3e+06u l=350000u
X211 a_n3094_n11100# vbias vdd vdd sky130_fd_pr__pfet_01v8_lvt ad=0p pd=0u as=0p ps=0u w=4e+06u l=2e+06u
X212 vss a_n6538_n5814# vout vss sky130_fd_pr__nfet_01v8_lvt ad=0p pd=0u as=0p ps=0u w=3e+06u l=350000u
X213 vout vbias vdd vdd sky130_fd_pr__pfet_01v8_lvt ad=0p pd=0u as=0p ps=0u w=4e+06u l=2e+06u
X214 a_n6538_n5814# vp a_n3094_n11100# vdd sky130_fd_pr__pfet_01v8_lvt ad=0p pd=0u as=0p ps=0u w=4e+06u l=350000u
X215 vout a_n6538_n5814# vss vss sky130_fd_pr__nfet_01v8_lvt ad=0p pd=0u as=0p ps=0u w=3e+06u l=350000u
X216 vdd vbias vout vdd sky130_fd_pr__pfet_01v8_lvt ad=0p pd=0u as=0p ps=0u w=4e+06u l=2e+06u
X217 vdd vbias vbias vdd sky130_fd_pr__pfet_01v8_lvt ad=0p pd=0u as=0p ps=0u w=4e+06u l=2e+06u
X218 vout a_n6538_n5814# vss vss sky130_fd_pr__nfet_01v8_lvt ad=0p pd=0u as=0p ps=0u w=3e+06u l=350000u
X219 vdd vbias vout vdd sky130_fd_pr__pfet_01v8_lvt ad=0p pd=0u as=0p ps=0u w=4e+06u l=2e+06u
X220 a_n2720_n15566# vn a_n3094_n11100# vdd sky130_fd_pr__pfet_01v8_lvt ad=0p pd=0u as=0p ps=0u w=4e+06u l=350000u
X221 vout a_n6538_n5814# vss vss sky130_fd_pr__nfet_01v8_lvt ad=0p pd=0u as=0p ps=0u w=3e+06u l=350000u
X222 vout a_n6538_n5814# vss vss sky130_fd_pr__nfet_01v8_lvt ad=0p pd=0u as=0p ps=0u w=3e+06u l=350000u
X223 vout vbias vdd vdd sky130_fd_pr__pfet_01v8_lvt ad=0p pd=0u as=0p ps=0u w=4e+06u l=2e+06u
X224 vdd vbias vout vdd sky130_fd_pr__pfet_01v8_lvt ad=0p pd=0u as=0p ps=0u w=4e+06u l=2e+06u
X225 vout vbias vdd vdd sky130_fd_pr__pfet_01v8_lvt ad=0p pd=0u as=0p ps=0u w=4e+06u l=2e+06u
X226 vout a_n6538_n5814# vss vss sky130_fd_pr__nfet_01v8_lvt ad=0p pd=0u as=0p ps=0u w=3e+06u l=350000u
X227 vdd vbias vout vdd sky130_fd_pr__pfet_01v8_lvt ad=0p pd=0u as=0p ps=0u w=4e+06u l=2e+06u
X228 vout vbias vdd vdd sky130_fd_pr__pfet_01v8_lvt ad=0p pd=0u as=0p ps=0u w=4e+06u l=2e+06u
X229 vdd vbias vout vdd sky130_fd_pr__pfet_01v8_lvt ad=0p pd=0u as=0p ps=0u w=4e+06u l=2e+06u
X230 a_n3094_n11100# vn a_n2720_n15566# vdd sky130_fd_pr__pfet_01v8_lvt ad=0p pd=0u as=0p ps=0u w=4e+06u l=350000u
X231 vout vbias vdd vdd sky130_fd_pr__pfet_01v8_lvt ad=0p pd=0u as=0p ps=0u w=4e+06u l=2e+06u
X232 vss a_n6538_n5814# vout vss sky130_fd_pr__nfet_01v8_lvt ad=0p pd=0u as=0p ps=0u w=3e+06u l=350000u
X233 vout a_n6538_n5814# vss vss sky130_fd_pr__nfet_01v8_lvt ad=0p pd=0u as=0p ps=0u w=3e+06u l=350000u
X234 vout a_n6538_n5814# vss vss sky130_fd_pr__nfet_01v8_lvt ad=0p pd=0u as=0p ps=0u w=3e+06u l=350000u
X235 vdd vbias vout vdd sky130_fd_pr__pfet_01v8_lvt ad=0p pd=0u as=0p ps=0u w=4e+06u l=2e+06u
X236 vdd vbias vout vdd sky130_fd_pr__pfet_01v8_lvt ad=0p pd=0u as=0p ps=0u w=4e+06u l=2e+06u
X237 a_n3094_n11100# vbias vdd vdd sky130_fd_pr__pfet_01v8_lvt ad=0p pd=0u as=0p ps=0u w=4e+06u l=2e+06u
X238 vdd vbias vout vdd sky130_fd_pr__pfet_01v8_lvt ad=0p pd=0u as=0p ps=0u w=4e+06u l=2e+06u
X239 vdd vbias vout vdd sky130_fd_pr__pfet_01v8_lvt ad=0p pd=0u as=0p ps=0u w=4e+06u l=2e+06u
X240 vdd vbias vout vdd sky130_fd_pr__pfet_01v8_lvt ad=0p pd=0u as=0p ps=0u w=4e+06u l=2e+06u
X241 vout vbias vdd vdd sky130_fd_pr__pfet_01v8_lvt ad=0p pd=0u as=0p ps=0u w=4e+06u l=2e+06u
X242 vss a_n6538_n5814# vout vss sky130_fd_pr__nfet_01v8_lvt ad=0p pd=0u as=0p ps=0u w=3e+06u l=350000u
X243 vss a_n6538_n5814# vout vss sky130_fd_pr__nfet_01v8_lvt ad=0p pd=0u as=0p ps=0u w=3e+06u l=350000u
X244 a_n3094_n11100# vbias vdd vdd sky130_fd_pr__pfet_01v8_lvt ad=0p pd=0u as=0p ps=0u w=4e+06u l=2e+06u
X245 vout a_n6538_n5814# vss vss sky130_fd_pr__nfet_01v8_lvt ad=0p pd=0u as=0p ps=0u w=3e+06u l=350000u
X246 vss a_n6538_n5814# vout vss sky130_fd_pr__nfet_01v8_lvt ad=0p pd=0u as=0p ps=0u w=3e+06u l=350000u
X247 vdd vbias a_n3094_n11100# vdd sky130_fd_pr__pfet_01v8_lvt ad=0p pd=0u as=0p ps=0u w=4e+06u l=2e+06u
X248 vss a_n6538_n5814# vout vss sky130_fd_pr__nfet_01v8_lvt ad=0p pd=0u as=0p ps=0u w=3e+06u l=350000u
X249 vout vbias vdd vdd sky130_fd_pr__pfet_01v8_lvt ad=0p pd=0u as=0p ps=0u w=4e+06u l=2e+06u
X250 vout vbias vdd vdd sky130_fd_pr__pfet_01v8_lvt ad=0p pd=0u as=0p ps=0u w=4e+06u l=2e+06u
X251 vdd vbias vout vdd sky130_fd_pr__pfet_01v8_lvt ad=0p pd=0u as=0p ps=0u w=4e+06u l=2e+06u
X252 a_n3094_n11100# vbias vdd vdd sky130_fd_pr__pfet_01v8_lvt ad=0p pd=0u as=0p ps=0u w=4e+06u l=2e+06u
X253 vdd vbias a_n3094_n11100# vdd sky130_fd_pr__pfet_01v8_lvt ad=0p pd=0u as=0p ps=0u w=4e+06u l=2e+06u
X254 vss a_n6538_n5814# vout vss sky130_fd_pr__nfet_01v8_lvt ad=0p pd=0u as=0p ps=0u w=3e+06u l=350000u
X255 vout a_n6538_n5814# vss vss sky130_fd_pr__nfet_01v8_lvt ad=0p pd=0u as=0p ps=0u w=3e+06u l=350000u
X256 vdd vbias vout vdd sky130_fd_pr__pfet_01v8_lvt ad=0p pd=0u as=0p ps=0u w=4e+06u l=2e+06u
X257 vdd vbias a_n3094_n11100# vdd sky130_fd_pr__pfet_01v8_lvt ad=0p pd=0u as=0p ps=0u w=4e+06u l=2e+06u
.ends

.subckt OTA_tri vdd vp vn vbias vss vout
X0 a_19914_13542# vp a_23358_8312# vdd sky130_fd_pr__pfet_01v8_lvt ad=0p pd=0u as=0p ps=0u w=4e+06u l=350000u
X1 vss a_19914_13542# vout vss sky130_fd_pr__nfet_01v8_lvt ad=0p pd=0u as=0p ps=0u w=3e+06u l=350000u
X2 vout a_19914_13542# vss vss sky130_fd_pr__nfet_01v8_lvt ad=0p pd=0u as=0p ps=0u w=3e+06u l=350000u
X3 vout a_19914_13542# vss vss sky130_fd_pr__nfet_01v8_lvt ad=0p pd=0u as=0p ps=0u w=3e+06u l=350000u
X4 a_23732_3846# vn a_23358_8312# vdd sky130_fd_pr__pfet_01v8_lvt ad=0p pd=0u as=0p ps=0u w=4e+06u l=350000u
X5 vout a_19914_13542# vss vss sky130_fd_pr__nfet_01v8_lvt ad=0p pd=0u as=0p ps=0u w=3e+06u l=350000u
X6 vdd vbias vout vdd sky130_fd_pr__pfet_01v8_lvt ad=0p pd=0u as=0p ps=0u w=4e+06u l=2e+06u
X7 vout vbias vdd vdd sky130_fd_pr__pfet_01v8_lvt ad=0p pd=0u as=0p ps=0u w=4e+06u l=2e+06u
X8 vdd vbias vout vdd sky130_fd_pr__pfet_01v8_lvt ad=0p pd=0u as=0p ps=0u w=4e+06u l=2e+06u
X9 vout vbias vdd vdd sky130_fd_pr__pfet_01v8_lvt ad=0p pd=0u as=0p ps=0u w=4e+06u l=2e+06u
X10 vout vbias vdd vdd sky130_fd_pr__pfet_01v8_lvt ad=0p pd=0u as=0p ps=0u w=4e+06u l=2e+06u
X11 vdd vbias vout vdd sky130_fd_pr__pfet_01v8_lvt ad=0p pd=0u as=0p ps=0u w=4e+06u l=2e+06u
X12 vout a_19914_13542# vss vss sky130_fd_pr__nfet_01v8_lvt ad=0p pd=0u as=0p ps=0u w=3e+06u l=350000u
X13 vout a_19914_13542# vss vss sky130_fd_pr__nfet_01v8_lvt ad=0p pd=0u as=0p ps=0u w=3e+06u l=350000u
X14 a_23358_8312# vbias vdd vdd sky130_fd_pr__pfet_01v8_lvt ad=0p pd=0u as=0p ps=0u w=4e+06u l=2e+06u
X15 a_23358_8312# vp a_19914_13542# vdd sky130_fd_pr__pfet_01v8_lvt ad=0p pd=0u as=0p ps=0u w=4e+06u l=350000u
X16 vout vbias vdd vdd sky130_fd_pr__pfet_01v8_lvt ad=0p pd=0u as=0p ps=0u w=4e+06u l=2e+06u
X17 vdd vbias vout vdd sky130_fd_pr__pfet_01v8_lvt ad=0p pd=0u as=0p ps=0u w=4e+06u l=2e+06u
X18 vout vbias vdd vdd sky130_fd_pr__pfet_01v8_lvt ad=0p pd=0u as=0p ps=0u w=4e+06u l=2e+06u
X19 vout a_19914_13542# vss vss sky130_fd_pr__nfet_01v8_lvt ad=0p pd=0u as=0p ps=0u w=3e+06u l=350000u
X20 vout vbias vdd vdd sky130_fd_pr__pfet_01v8_lvt ad=0p pd=0u as=0p ps=0u w=4e+06u l=2e+06u
X21 vout vbias vdd vdd sky130_fd_pr__pfet_01v8_lvt ad=0p pd=0u as=0p ps=0u w=4e+06u l=2e+06u
X22 vdd vbias vbias vdd sky130_fd_pr__pfet_01v8_lvt ad=0p pd=0u as=0p ps=0u w=4e+06u l=2e+06u
X23 a_23358_8312# vn a_23732_3846# vdd sky130_fd_pr__pfet_01v8_lvt ad=0p pd=0u as=0p ps=0u w=4e+06u l=350000u
X24 vout a_19914_13542# vss vss sky130_fd_pr__nfet_01v8_lvt ad=0p pd=0u as=0p ps=0u w=3e+06u l=350000u
X25 vout vbias vdd vdd sky130_fd_pr__pfet_01v8_lvt ad=0p pd=0u as=0p ps=0u w=4e+06u l=2e+06u
X26 a_23358_8312# vp a_19914_13542# vdd sky130_fd_pr__pfet_01v8_lvt ad=0p pd=0u as=0p ps=0u w=4e+06u l=350000u
X27 vdd vbias vout vdd sky130_fd_pr__pfet_01v8_lvt ad=0p pd=0u as=0p ps=0u w=4e+06u l=2e+06u
X28 vout a_19914_13542# vss vss sky130_fd_pr__nfet_01v8_lvt ad=0p pd=0u as=0p ps=0u w=3e+06u l=350000u
X29 vout vbias vdd vdd sky130_fd_pr__pfet_01v8_lvt ad=0p pd=0u as=0p ps=0u w=4e+06u l=2e+06u
X30 vout vbias vdd vdd sky130_fd_pr__pfet_01v8_lvt ad=0p pd=0u as=0p ps=0u w=4e+06u l=2e+06u
X31 vdd vbias a_23358_8312# vdd sky130_fd_pr__pfet_01v8_lvt ad=0p pd=0u as=0p ps=0u w=4e+06u l=2e+06u
X32 vdd vbias vbias vdd sky130_fd_pr__pfet_01v8_lvt ad=0p pd=0u as=0p ps=0u w=4e+06u l=2e+06u
X33 vout vbias vdd vdd sky130_fd_pr__pfet_01v8_lvt ad=0p pd=0u as=0p ps=0u w=4e+06u l=2e+06u
X34 vout vbias vdd vdd sky130_fd_pr__pfet_01v8_lvt ad=0p pd=0u as=0p ps=0u w=4e+06u l=2e+06u
X35 vdd vbias vout vdd sky130_fd_pr__pfet_01v8_lvt ad=0p pd=0u as=0p ps=0u w=4e+06u l=2e+06u
X36 vout vbias vdd vdd sky130_fd_pr__pfet_01v8_lvt ad=0p pd=0u as=0p ps=0u w=4e+06u l=2e+06u
X37 vdd vbias vout vdd sky130_fd_pr__pfet_01v8_lvt ad=0p pd=0u as=0p ps=0u w=4e+06u l=2e+06u
X38 vout a_19914_13542# vss vss sky130_fd_pr__nfet_01v8_lvt ad=0p pd=0u as=0p ps=0u w=3e+06u l=350000u
X39 a_23732_3846# a_23732_3846# vss vss sky130_fd_pr__nfet_01v8_lvt ad=0p pd=0u as=0p ps=0u w=3e+06u l=350000u
X40 vout vbias vdd vdd sky130_fd_pr__pfet_01v8_lvt ad=0p pd=0u as=0p ps=0u w=4e+06u l=2e+06u