* NGSPICE file created from triangle_post.ext - technology: sky130A

.subckt triangle_post vdd vbias1 vbias2 vref vss vsquare vt
X1 vt.t200 a_19926_13536.t17 vss.t142 vss sky130_fd_pr__nfet_01v8_lvt ad=0p pd=0u as=0p ps=0u w=3e+06u l=350000u
X2 vss.t170 a_19926_29936.t17 vsquare.t146 vss sky130_fd_pr__nfet_01v8_lvt ad=0p pd=0u as=0p ps=0u w=3e+06u l=350000u
X3 vdd.t143 vbias2.t24 vsquare.t148 vdd sky130_fd_pr__pfet_01v8_lvt ad=0p pd=0u as=0p ps=0u w=4e+06u l=2e+06u
X4 a_23370_8306.t11 vref.t0 a_19926_13536.t4 vdd sky130_fd_pr__pfet_01v8_lvt ad=0p pd=0u as=0p ps=0u w=4e+06u l=350000u
X5 vt.t46 vbias1.t24 vdd.t196 vdd sky130_fd_pr__pfet_01v8_lvt ad=0p pd=0u as=0p ps=0u w=4e+06u l=2e+06u
X6 vss.t145 a_19926_29936.t18 vsquare.t145 vss sky130_fd_pr__nfet_01v8_lvt ad=0p pd=0u as=0p ps=0u w=3e+06u l=350000u
X7 vss.t146 a_19926_29936.t19 vsquare.t144 vss sky130_fd_pr__nfet_01v8_lvt ad=0p pd=0u as=0p ps=0u w=3e+06u l=350000u
X8 vdd.t197 vbias1.t25 vt.t47 vdd sky130_fd_pr__pfet_01v8_lvt ad=0p pd=0u as=0p ps=0u w=4e+06u l=2e+06u
X9 vt OTA_tri_0/vn sky130_fd_pr__cap_mim_m3_1 l=1.5e+07u w=1.5e+07u
X10 vt.t48 vbias1.t26 vdd.t198 vdd sky130_fd_pr__pfet_01v8_lvt ad=0p pd=0u as=0p ps=0u w=4e+06u l=2e+06u
X11 a_23370_24650.t11 vref.t1 a_23744_20184.t1 vdd sky130_fd_pr__pfet_01v8_lvt ad=0p pd=0u as=0p ps=0u w=4e+06u l=350000u
X12 vss.t9 a_23744_20184.t18 a_23744_20184.t19 vss sky130_fd_pr__nfet_01v8_lvt ad=0p pd=0u as=0p ps=0u w=3e+06u l=350000u
X13 vt.t49 vbias1.t27 vdd.t199 vdd sky130_fd_pr__pfet_01v8_lvt ad=0p pd=0u as=0p ps=0u w=4e+06u l=2e+06u
X14 a_23744_20184.t8 vref.t2 a_23370_24650.t10 vdd sky130_fd_pr__pfet_01v8_lvt ad=0p pd=0u as=0p ps=0u w=4e+06u l=350000u
X15 vsquare.t149 vbias2.t25 vdd.t142 vdd sky130_fd_pr__pfet_01v8_lvt ad=0p pd=0u as=0p ps=0u w=4e+06u l=2e+06u
X16 vdd.t141 vbias2.t26 vsquare.t150 vdd sky130_fd_pr__pfet_01v8_lvt ad=0p pd=0u as=0p ps=0u w=4e+06u l=2e+06u
X17 vdd.t200 vbias1.t28 vt.t50 vdd sky130_fd_pr__pfet_01v8_lvt ad=0p pd=0u as=0p ps=0u w=4e+06u l=2e+06u
X18 a_19926_29936.t9 OTA_0/vp a_23370_24650.t35 vdd sky130_fd_pr__pfet_01v8_lvt ad=0p pd=0u as=0p ps=0u w=4e+06u l=350000u
X19 vdd.t140 vbias2.t20 vbias2.t21 vdd sky130_fd_pr__pfet_01v8_lvt ad=0p pd=0u as=0p ps=0u w=4e+06u l=2e+06u
X20 vdd.t139 vbias2.t27 vsquare.t151 vdd sky130_fd_pr__pfet_01v8_lvt ad=0p pd=0u as=0p ps=0u w=4e+06u l=2e+06u
X21 vss.t147 a_19926_29936.t20 vsquare.t143 vss sky130_fd_pr__nfet_01v8_lvt ad=0p pd=0u as=0p ps=0u w=3e+06u l=350000u
X22 vsquare.t152 vbias2.t28 vdd.t138 vdd sky130_fd_pr__pfet_01v8_lvt ad=0p pd=0u as=0p ps=0u w=4e+06u l=2e+06u
X23 vt.t51 vbias1.t29 vdd.t201 vdd sky130_fd_pr__pfet_01v8_lvt ad=0p pd=0u as=0p ps=0u w=4e+06u l=2e+06u
X24 vt.t199 a_19926_13536.t18 vss.t141 vss sky130_fd_pr__nfet_01v8_lvt ad=0p pd=0u as=0p ps=0u w=3e+06u l=350000u
X25 vdd.t137 vbias2.t29 vsquare.t153 vdd sky130_fd_pr__pfet_01v8_lvt ad=0p pd=0u as=0p ps=0u w=4e+06u l=2e+06u
X26 vdd.t202 vbias1.t30 vt.t52 vdd sky130_fd_pr__pfet_01v8_lvt ad=0p pd=0u as=0p ps=0u w=4e+06u l=2e+06u
X27 vdd.t136 vbias2.t30 vsquare.t154 vdd sky130_fd_pr__pfet_01v8_lvt ad=0p pd=0u as=0p ps=0u w=4e+06u l=2e+06u
X28 vdd.t203 vbias1.t31 a_23370_8306.t27 vdd sky130_fd_pr__pfet_01v8_lvt ad=0p pd=0u as=0p ps=0u w=4e+06u l=2e+06u
X29 vss.t148 a_19926_29936.t21 vsquare.t142 vss sky130_fd_pr__nfet_01v8_lvt ad=0p pd=0u as=0p ps=0u w=3e+06u l=350000u
X30 vss.t149 a_19926_29936.t22 vsquare.t141 vss sky130_fd_pr__nfet_01v8_lvt ad=0p pd=0u as=0p ps=0u w=3e+06u l=350000u
X31 vt.t198 a_19926_13536.t19 vss.t140 vss sky130_fd_pr__nfet_01v8_lvt ad=0p pd=0u as=0p ps=0u w=3e+06u l=350000u
X32 vss.t139 a_19926_13536.t20 vt.t197 vss sky130_fd_pr__nfet_01v8_lvt ad=0p pd=0u as=0p ps=0u w=3e+06u l=350000u
X33 vt OTA_tri_0/vn sky130_fd_pr__cap_mim_m3_1 l=1.5e+07u w=1.5e+07u
X34 vt.t196 a_19926_13536.t21 vss.t138 vss sky130_fd_pr__nfet_01v8_lvt ad=0p pd=0u as=0p ps=0u w=3e+06u l=350000u
X35 vss.t8 a_23744_20184.t20 a_19926_29936.t2 vss sky130_fd_pr__nfet_01v8_lvt ad=0p pd=0u as=0p ps=0u w=3e+06u l=350000u
X36 vdd.t204 vbias1.t32 vt.t53 vdd sky130_fd_pr__pfet_01v8_lvt ad=0p pd=0u as=0p ps=0u w=4e+06u l=2e+06u
X37 vss.t150 a_19926_29936.t23 vsquare.t140 vss sky130_fd_pr__nfet_01v8_lvt ad=0p pd=0u as=0p ps=0u w=3e+06u l=350000u
X38 a_23370_8306.t12 OTA_tri_0/vn a_23744_3840.t11 vdd sky130_fd_pr__pfet_01v8_lvt ad=0p pd=0u as=0p ps=0u w=4e+06u l=350000u
X39 vdd.t135 vbias2.t31 vsquare.t155 vdd sky130_fd_pr__pfet_01v8_lvt ad=0p pd=0u as=0p ps=0u w=4e+06u l=2e+06u
X40 vdd.t134 vbias2.t22 vbias2.t23 vdd sky130_fd_pr__pfet_01v8_lvt ad=0p pd=0u as=0p ps=0u w=4e+06u l=2e+06u
X41 vsquare.t156 vbias2.t32 vdd.t133 vdd sky130_fd_pr__pfet_01v8_lvt ad=0p pd=0u as=0p ps=0u w=4e+06u l=2e+06u
X42 vdd.t205 vbias1.t33 vt.t54 vdd sky130_fd_pr__pfet_01v8_lvt ad=0p pd=0u as=0p ps=0u w=4e+06u l=2e+06u
X43 vdd.t132 vbias2.t33 vsquare.t157 vdd sky130_fd_pr__pfet_01v8_lvt ad=0p pd=0u as=0p ps=0u w=4e+06u l=2e+06u
X44 vdd.t131 vbias2.t34 vsquare.t158 vdd sky130_fd_pr__pfet_01v8_lvt ad=0p pd=0u as=0p ps=0u w=4e+06u l=2e+06u
X45 vss.t151 a_19926_29936.t24 vsquare.t139 vss sky130_fd_pr__nfet_01v8_lvt ad=0p pd=0u as=0p ps=0u w=3e+06u l=350000u
X46 vsquare.t138 a_19926_29936.t25 vss.t152 vss sky130_fd_pr__nfet_01v8_lvt ad=0p pd=0u as=0p ps=0u w=3e+06u l=350000u
X47 vdd.t130 vbias2.t35 vsquare.t159 vdd sky130_fd_pr__pfet_01v8_lvt ad=0p pd=0u as=0p ps=0u w=4e+06u l=2e+06u
X48 vsquare.t160 vbias2.t36 vdd.t129 vdd sky130_fd_pr__pfet_01v8_lvt ad=0p pd=0u as=0p ps=0u w=4e+06u l=2e+06u
X49 vsquare.t161 vbias2.t37 vdd.t128 vdd sky130_fd_pr__pfet_01v8_lvt ad=0p pd=0u as=0p ps=0u w=4e+06u l=2e+06u
X50 vss.t137 a_19926_13536.t22 vt.t195 vss sky130_fd_pr__nfet_01v8_lvt ad=0p pd=0u as=0p ps=0u w=3e+06u l=350000u
X51 vt OTA_tri_0/vn sky130_fd_pr__cap_mim_m3_1 l=1.5e+07u w=1.5e+07u
X52 vdd.t206 vbias1.t34 a_23370_8306.t28 vdd sky130_fd_pr__pfet_01v8_lvt ad=0p pd=0u as=0p ps=0u w=4e+06u l=2e+06u
X53 vt.t194 a_19926_13536.t23 vss.t136 vss sky130_fd_pr__nfet_01v8_lvt ad=0p pd=0u as=0p ps=0u w=3e+06u l=350000u
X54 vss.t135 a_19926_13536.t24 vt.t193 vss sky130_fd_pr__nfet_01v8_lvt ad=0p pd=0u as=0p ps=0u w=3e+06u l=350000u
X55 vt.t55 vbias1.t35 vdd.t207 vdd sky130_fd_pr__pfet_01v8_lvt ad=0p pd=0u as=0p ps=0u w=4e+06u l=2e+06u
X56 a_23370_24650.t9 vref.t3 a_23744_20184.t0 vdd sky130_fd_pr__pfet_01v8_lvt ad=0p pd=0u as=0p ps=0u w=4e+06u l=350000u
X57 a_19926_13536.t6 vref.t4 a_23370_8306.t10 vdd sky130_fd_pr__pfet_01v8_lvt ad=0p pd=0u as=0p ps=0u w=4e+06u l=350000u
X58 vss.t134 a_19926_13536.t25 vt.t192 vss sky130_fd_pr__nfet_01v8_lvt ad=0p pd=0u as=0p ps=0u w=3e+06u l=350000u
X59 a_19926_29936.t10 OTA_0/vp a_23370_24650.t34 vdd sky130_fd_pr__pfet_01v8_lvt ad=0p pd=0u as=0p ps=0u w=4e+06u l=350000u
X60 vdd.t127 vbias2.t0 vbias2.t1 vdd sky130_fd_pr__pfet_01v8_lvt ad=0p pd=0u as=0p ps=0u w=4e+06u l=2e+06u
X61 vsquare.t162 vbias2.t38 vdd.t126 vdd sky130_fd_pr__pfet_01v8_lvt ad=0p pd=0u as=0p ps=0u w=4e+06u l=2e+06u
X62 vsquare.t163 vbias2.t39 vdd.t125 vdd sky130_fd_pr__pfet_01v8_lvt ad=0p pd=0u as=0p ps=0u w=4e+06u l=2e+06u
X63 vdd.t124 vbias2.t40 vsquare.t164 vdd sky130_fd_pr__pfet_01v8_lvt ad=0p pd=0u as=0p ps=0u w=4e+06u l=2e+06u
X64 vss.t153 a_19926_29936.t26 vsquare.t137 vss sky130_fd_pr__nfet_01v8_lvt ad=0p pd=0u as=0p ps=0u w=3e+06u l=350000u
X65 vsquare.t136 a_19926_29936.t27 vss.t154 vss sky130_fd_pr__nfet_01v8_lvt ad=0p pd=0u as=0p ps=0u w=3e+06u l=350000u
X66 a_23370_24650.t23 vbias2.t41 vdd.t123 vdd sky130_fd_pr__pfet_01v8_lvt ad=0p pd=0u as=0p ps=0u w=4e+06u l=2e+06u
X67 vsquare.t165 vbias2.t42 vdd.t122 vdd sky130_fd_pr__pfet_01v8_lvt ad=0p pd=0u as=0p ps=0u w=4e+06u l=2e+06u
X68 vsquare.t166 vbias2.t43 vdd.t121 vdd sky130_fd_pr__pfet_01v8_lvt ad=0p pd=0u as=0p ps=0u w=4e+06u l=2e+06u
X69 vdd.t120 vbias2.t44 vsquare.t167 vdd sky130_fd_pr__pfet_01v8_lvt ad=0p pd=0u as=0p ps=0u w=4e+06u l=2e+06u
X70 vss.t133 a_19926_13536.t26 vt.t191 vss sky130_fd_pr__nfet_01v8_lvt ad=0p pd=0u as=0p ps=0u w=3e+06u l=350000u
X71 vt.t190 a_19926_13536.t27 vss.t132 vss sky130_fd_pr__nfet_01v8_lvt ad=0p pd=0u as=0p ps=0u w=3e+06u l=350000u
X73 a_23370_24650.t33 OTA_0/vp a_19926_29936.t5 vdd sky130_fd_pr__pfet_01v8_lvt ad=0p pd=0u as=0p ps=0u w=4e+06u l=350000u
X74 vsquare.t135 a_19926_29936.t28 vss.t155 vss sky130_fd_pr__nfet_01v8_lvt ad=0p pd=0u as=0p ps=0u w=3e+06u l=350000u
X75 a_23744_3840.t10 OTA_tri_0/vn a_23370_8306.t13 vdd sky130_fd_pr__pfet_01v8_lvt ad=0p pd=0u as=0p ps=0u w=4e+06u l=350000u
X77 vss.t131 a_19926_13536.t28 vt.t189 vss sky130_fd_pr__nfet_01v8_lvt ad=0p pd=0u as=0p ps=0u w=3e+06u l=350000u
X78 vsquare.t168 vbias2.t45 vdd.t119 vdd sky130_fd_pr__pfet_01v8_lvt ad=0p pd=0u as=0p ps=0u w=4e+06u l=2e+06u
X79 vdd.t118 vbias2.t46 vsquare.t169 vdd sky130_fd_pr__pfet_01v8_lvt ad=0p pd=0u as=0p ps=0u w=4e+06u l=2e+06u
X80 vbias1.t23 vbias1.t22 vdd.t195 vdd sky130_fd_pr__pfet_01v8_lvt ad=0p pd=0u as=0p ps=0u w=4e+06u l=2e+06u
X81 vt.t56 vbias1.t36 vdd.t208 vdd sky130_fd_pr__pfet_01v8_lvt ad=0p pd=0u as=0p ps=0u w=4e+06u l=2e+06u
X82 vsquare.t170 vbias2.t47 vdd.t117 vdd sky130_fd_pr__pfet_01v8_lvt ad=0p pd=0u as=0p ps=0u w=4e+06u l=2e+06u
X83 vss.t130 a_19926_13536.t29 vt.t188 vss sky130_fd_pr__nfet_01v8_lvt ad=0p pd=0u as=0p ps=0u w=3e+06u l=350000u
X84 vsquare.t134 a_19926_29936.t29 vss.t156 vss sky130_fd_pr__nfet_01v8_lvt ad=0p pd=0u as=0p ps=0u w=3e+06u l=350000u
X85 a_23370_24650.t22 vbias2.t48 vdd.t116 vdd sky130_fd_pr__pfet_01v8_lvt ad=0p pd=0u as=0p ps=0u w=4e+06u l=2e+06u
X86 vss.t129 a_19926_13536.t30 vt.t187 vss sky130_fd_pr__nfet_01v8_lvt ad=0p pd=0u as=0p ps=0u w=3e+06u l=350000u
X87 vsquare.t171 vbias2.t49 vdd.t115 vdd sky130_fd_pr__pfet_01v8_lvt ad=0p pd=0u as=0p ps=0u w=4e+06u l=2e+06u
X88 OTA_0/vp vsquare.t147 vss sky130_fd_pr__res_xhigh_po w=350000u l=9e+06u
X89 vsquare.t172 vbias2.t50 vdd.t114 vdd sky130_fd_pr__pfet_01v8_lvt ad=0p pd=0u as=0p ps=0u w=4e+06u l=2e+06u
X90 vdd.t113 vbias2.t51 vsquare.t173 vdd sky130_fd_pr__pfet_01v8_lvt ad=0p pd=0u as=0p ps=0u w=4e+06u l=2e+06u
X91 vss.t128 a_19926_13536.t31 vt.t186 vss sky130_fd_pr__nfet_01v8_lvt ad=0p pd=0u as=0p ps=0u w=3e+06u l=350000u
X92 a_19926_13536.t13 vref.t5 a_23370_8306.t9 vdd sky130_fd_pr__pfet_01v8_lvt ad=0p pd=0u as=0p ps=0u w=4e+06u l=350000u
X93 vsquare.t133 a_19926_29936.t30 vss.t157 vss sky130_fd_pr__nfet_01v8_lvt ad=0p pd=0u as=0p ps=0u w=3e+06u l=350000u
X94 vdd.t112 vbias2.t52 vsquare.t174 vdd sky130_fd_pr__pfet_01v8_lvt ad=0p pd=0u as=0p ps=0u w=4e+06u l=2e+06u
X95 vsquare.t175 vbias2.t53 vdd.t111 vdd sky130_fd_pr__pfet_01v8_lvt ad=0p pd=0u as=0p ps=0u w=4e+06u l=2e+06u
X96 a_19926_13536.t15 a_23744_3840.t20 vss.t62 vss sky130_fd_pr__nfet_01v8_lvt ad=0p pd=0u as=0p ps=0u w=3e+06u l=350000u
X97 vt.t57 vbias1.t37 vdd.t209 vdd sky130_fd_pr__pfet_01v8_lvt ad=0p pd=0u as=0p ps=0u w=4e+06u l=2e+06u
X98 vt OTA_tri_0/vn sky130_fd_pr__cap_mim_m3_1 l=1.5e+07u w=1.5e+07u
X99 vsquare.t132 a_19926_29936.t31 vss.t158 vss sky130_fd_pr__nfet_01v8_lvt ad=0p pd=0u as=0p ps=0u w=3e+06u l=350000u
X100 a_23370_8306.t22 OTA_tri_0/vn a_23744_3840.t9 vdd sky130_fd_pr__pfet_01v8_lvt ad=0p pd=0u as=0p ps=0u w=4e+06u l=350000u
X101 vsquare.t176 vbias2.t54 vdd.t110 vdd sky130_fd_pr__pfet_01v8_lvt ad=0p pd=0u as=0p ps=0u w=4e+06u l=2e+06u
X102 vss.t127 a_19926_13536.t32 vt.t185 vss sky130_fd_pr__nfet_01v8_lvt ad=0p pd=0u as=0p ps=0u w=3e+06u l=350000u
X103 vdd.t109 vbias2.t55 vsquare.t177 vdd sky130_fd_pr__pfet_01v8_lvt ad=0p pd=0u as=0p ps=0u w=4e+06u l=2e+06u
X104 vt.t58 vbias1.t38 vdd.t210 vdd sky130_fd_pr__pfet_01v8_lvt ad=0p pd=0u as=0p ps=0u w=4e+06u l=2e+06u
X105 vsquare.t131 a_19926_29936.t32 vss.t159 vss sky130_fd_pr__nfet_01v8_lvt ad=0p pd=0u as=0p ps=0u w=3e+06u l=350000u
X106 vsquare.t178 vbias2.t56 vdd.t108 vdd sky130_fd_pr__pfet_01v8_lvt ad=0p pd=0u as=0p ps=0u w=4e+06u l=2e+06u
X107 vss.t126 a_19926_13536.t33 vt.t184 vss sky130_fd_pr__nfet_01v8_lvt ad=0p pd=0u as=0p ps=0u w=3e+06u l=350000u
X108 vsquare.t179 vbias2.t57 vdd.t107 vdd sky130_fd_pr__pfet_01v8_lvt ad=0p pd=0u as=0p ps=0u w=4e+06u l=2e+06u
X109 a_23370_24650.t21 vbias2.t58 vdd.t106 vdd sky130_fd_pr__pfet_01v8_lvt ad=0p pd=0u as=0p ps=0u w=4e+06u l=2e+06u
X110 vdd.t105 vbias2.t59 vsquare.t180 vdd sky130_fd_pr__pfet_01v8_lvt ad=0p pd=0u as=0p ps=0u w=4e+06u l=2e+06u
X111 vdd.t211 vbias1.t39 vt.t59 vdd sky130_fd_pr__pfet_01v8_lvt ad=0p pd=0u as=0p ps=0u w=4e+06u l=2e+06u
X112 vsquare.t181 vbias2.t60 vdd.t104 vdd sky130_fd_pr__pfet_01v8_lvt ad=0p pd=0u as=0p ps=0u w=4e+06u l=2e+06u
X113 vsquare.t130 a_19926_29936.t33 vss.t160 vss sky130_fd_pr__nfet_01v8_lvt ad=0p pd=0u as=0p ps=0u w=3e+06u l=350000u
X114 vt.t60 vbias1.t40 vdd.t212 vdd sky130_fd_pr__pfet_01v8_lvt ad=0p pd=0u as=0p ps=0u w=4e+06u l=2e+06u
X115 a_23370_24650.t32 OTA_0/vp a_19926_29936.t6 vdd sky130_fd_pr__pfet_01v8_lvt ad=0p pd=0u as=0p ps=0u w=4e+06u l=350000u
X116 vss.t125 a_19926_13536.t34 vt.t183 vss sky130_fd_pr__nfet_01v8_lvt ad=0p pd=0u as=0p ps=0u w=3e+06u l=350000u
X117 vdd.t103 vbias2.t61 vsquare.t182 vdd sky130_fd_pr__pfet_01v8_lvt ad=0p pd=0u as=0p ps=0u w=4e+06u l=2e+06u
X118 vsquare.t183 vbias2.t62 vdd.t102 vdd sky130_fd_pr__pfet_01v8_lvt ad=0p pd=0u as=0p ps=0u w=4e+06u l=2e+06u
X119 vss.t124 a_19926_13536.t35 vt.t182 vss sky130_fd_pr__nfet_01v8_lvt ad=0p pd=0u as=0p ps=0u w=3e+06u l=350000u
X120 vdd.t213 vbias1.t41 vt.t61 vdd sky130_fd_pr__pfet_01v8_lvt ad=0p pd=0u as=0p ps=0u w=4e+06u l=2e+06u
X121 vsquare.t129 a_19926_29936.t34 vss.t161 vss sky130_fd_pr__nfet_01v8_lvt ad=0p pd=0u as=0p ps=0u w=3e+06u l=350000u
X122 a_23370_24650.t20 vbias2.t63 vdd.t101 vdd sky130_fd_pr__pfet_01v8_lvt ad=0p pd=0u as=0p ps=0u w=4e+06u l=2e+06u
X123 vdd.t214 vbias1.t42 vt.t62 vdd sky130_fd_pr__pfet_01v8_lvt ad=0p pd=0u as=0p ps=0u w=4e+06u l=2e+06u
X124 vdd.t215 vbias1.t43 vt.t63 vdd sky130_fd_pr__pfet_01v8_lvt ad=0p pd=0u as=0p ps=0u w=4e+06u l=2e+06u
X125 vdd.t216 vbias1.t44 vt.t64 vdd sky130_fd_pr__pfet_01v8_lvt ad=0p pd=0u as=0p ps=0u w=4e+06u l=2e+06u
X126 vsquare.t128 a_19926_29936.t35 vss.t162 vss sky130_fd_pr__nfet_01v8_lvt ad=0p pd=0u as=0p ps=0u w=3e+06u l=350000u
X127 vsquare.t184 vbias2.t64 vdd.t100 vdd sky130_fd_pr__pfet_01v8_lvt ad=0p pd=0u as=0p ps=0u w=4e+06u l=2e+06u
X128 a_23370_8306.t8 vref.t6 a_19926_13536.t2 vdd sky130_fd_pr__pfet_01v8_lvt ad=0p pd=0u as=0p ps=0u w=4e+06u l=350000u
X129 a_23370_24650.t31 OTA_0/vp a_19926_29936.t8 vdd sky130_fd_pr__pfet_01v8_lvt ad=0p pd=0u as=0p ps=0u w=4e+06u l=350000u
X130 vss.t175 a_23744_3840.t21 a_19926_13536.t16 vss sky130_fd_pr__nfet_01v8_lvt ad=0p pd=0u as=0p ps=0u w=3e+06u l=350000u
X131 vsquare.t127 a_19926_29936.t36 vss.t163 vss sky130_fd_pr__nfet_01v8_lvt ad=0p pd=0u as=0p ps=0u w=3e+06u l=350000u
X132 vdd.t217 vbias1.t45 vt.t65 vdd sky130_fd_pr__pfet_01v8_lvt ad=0p pd=0u as=0p ps=0u w=4e+06u l=2e+06u
X133 vsquare.t185 vbias2.t65 vdd.t99 vdd sky130_fd_pr__pfet_01v8_lvt ad=0p pd=0u as=0p ps=0u w=4e+06u l=2e+06u
X134 vdd.t98 vbias2.t66 vsquare.t186 vdd sky130_fd_pr__pfet_01v8_lvt ad=0p pd=0u as=0p ps=0u w=4e+06u l=2e+06u
X135 OTA_tri_0/vn vsquare.t66 vss sky130_fd_pr__res_xhigh_po w=350000u l=1.7e+07u
X136 vt.t66 vbias1.t46 vdd.t218 vdd sky130_fd_pr__pfet_01v8_lvt ad=0p pd=0u as=0p ps=0u w=4e+06u l=2e+06u
X137 vt OTA_tri_0/vn sky130_fd_pr__cap_mim_m3_1 l=1.5e+07u w=1.5e+07u
X138 vss.t123 a_19926_13536.t36 vt.t181 vss sky130_fd_pr__nfet_01v8_lvt ad=0p pd=0u as=0p ps=0u w=3e+06u l=350000u
X139 vdd.t97 vbias2.t67 vsquare.t187 vdd sky130_fd_pr__pfet_01v8_lvt ad=0p pd=0u as=0p ps=0u w=4e+06u l=2e+06u
X140 vdd.t219 vbias1.t47 vt.t67 vdd sky130_fd_pr__pfet_01v8_lvt ad=0p pd=0u as=0p ps=0u w=4e+06u l=2e+06u
X141 vt.t68 vbias1.t48 vdd.t220 vdd sky130_fd_pr__pfet_01v8_lvt ad=0p pd=0u as=0p ps=0u w=4e+06u l=2e+06u
X142 vdd.t221 vbias1.t49 vt.t69 vdd sky130_fd_pr__pfet_01v8_lvt ad=0p pd=0u as=0p ps=0u w=4e+06u l=2e+06u
X143 a_19926_29936.t4 a_30831_20339# vss sky130_fd_pr__res_xhigh_po w=350000u l=500000u
X144 a_23370_24650.t19 vbias2.t68 vdd.t96 vdd sky130_fd_pr__pfet_01v8_lvt ad=0p pd=0u as=0p ps=0u w=4e+06u l=2e+06u
X145 vdd.t222 vbias1.t50 vt.t70 vdd sky130_fd_pr__pfet_01v8_lvt ad=0p pd=0u as=0p ps=0u w=4e+06u l=2e+06u
X146 vdd.t223 vbias1.t51 vt.t71 vdd sky130_fd_pr__pfet_01v8_lvt ad=0p pd=0u as=0p ps=0u w=4e+06u l=2e+06u
X147 vt.t72 vbias1.t52 vdd.t224 vdd sky130_fd_pr__pfet_01v8_lvt ad=0p pd=0u as=0p ps=0u w=4e+06u l=2e+06u
X148 vdd.t225 vbias1.t53 vt.t73 vdd sky130_fd_pr__pfet_01v8_lvt ad=0p pd=0u as=0p ps=0u w=4e+06u l=2e+06u
X149 vss.t122 a_19926_13536.t37 vt.t180 vss sky130_fd_pr__nfet_01v8_lvt ad=0p pd=0u as=0p ps=0u w=3e+06u l=350000u
X150 vdd.t226 vbias1.t54 vt.t74 vdd sky130_fd_pr__pfet_01v8_lvt ad=0p pd=0u as=0p ps=0u w=4e+06u l=2e+06u
X151 vt.t179 a_19926_13536.t38 vss.t121 vss sky130_fd_pr__nfet_01v8_lvt ad=0p pd=0u as=0p ps=0u w=3e+06u l=350000u
X152 vss.t120 a_19926_13536.t39 vt.t178 vss sky130_fd_pr__nfet_01v8_lvt ad=0p pd=0u as=0p ps=0u w=3e+06u l=350000u
X153 vsquare.t188 vbias2.t69 vdd.t95 vdd sky130_fd_pr__pfet_01v8_lvt ad=0p pd=0u as=0p ps=0u w=4e+06u l=2e+06u
X154 vsquare.t126 a_19926_29936.t37 vss.t164 vss sky130_fd_pr__nfet_01v8_lvt ad=0p pd=0u as=0p ps=0u w=3e+06u l=350000u
X155 vdd.t94 vbias2.t70 vsquare.t189 vdd sky130_fd_pr__pfet_01v8_lvt ad=0p pd=0u as=0p ps=0u w=4e+06u l=2e+06u
X156 vbias1.t21 vbias1.t20 vdd.t194 vdd sky130_fd_pr__pfet_01v8_lvt ad=0p pd=0u as=0p ps=0u w=4e+06u l=2e+06u
X157 vsquare.t125 a_19926_29936.t38 vss.t165 vss sky130_fd_pr__nfet_01v8_lvt ad=0p pd=0u as=0p ps=0u w=3e+06u l=350000u
X158 vdd.t93 vbias2.t71 vsquare.t190 vdd sky130_fd_pr__pfet_01v8_lvt ad=0p pd=0u as=0p ps=0u w=4e+06u l=2e+06u
X159 vt.t75 vbias1.t55 vdd.t227 vdd sky130_fd_pr__pfet_01v8_lvt ad=0p pd=0u as=0p ps=0u w=4e+06u l=2e+06u
X160 vdd.t228 vbias1.t56 vt.t76 vdd sky130_fd_pr__pfet_01v8_lvt ad=0p pd=0u as=0p ps=0u w=4e+06u l=2e+06u
X161 vss.t119 a_19926_13536.t40 vt.t177 vss sky130_fd_pr__nfet_01v8_lvt ad=0p pd=0u as=0p ps=0u w=3e+06u l=350000u
X163 vsquare.t124 a_19926_29936.t39 vss.t166 vss sky130_fd_pr__nfet_01v8_lvt ad=0p pd=0u as=0p ps=0u w=3e+06u l=350000u
X164 vt.t77 vbias1.t57 vdd.t229 vdd sky130_fd_pr__pfet_01v8_lvt ad=0p pd=0u as=0p ps=0u w=4e+06u l=2e+06u
X165 a_23370_24650.t18 vbias2.t72 vdd.t92 vdd sky130_fd_pr__pfet_01v8_lvt ad=0p pd=0u as=0p ps=0u w=4e+06u l=2e+06u
X166 vt.t176 a_19926_13536.t41 vss.t118 vss sky130_fd_pr__nfet_01v8_lvt ad=0p pd=0u as=0p ps=0u w=3e+06u l=350000u
X167 vdd.t230 vbias1.t58 vt.t78 vdd sky130_fd_pr__pfet_01v8_lvt ad=0p pd=0u as=0p ps=0u w=4e+06u l=2e+06u
X168 vss.t117 a_19926_13536.t42 vt.t175 vss sky130_fd_pr__nfet_01v8_lvt ad=0p pd=0u as=0p ps=0u w=3e+06u l=350000u
X169 vt.t79 vbias1.t59 vdd.t231 vdd sky130_fd_pr__pfet_01v8_lvt ad=0p pd=0u as=0p ps=0u w=4e+06u l=2e+06u
X170 vdd.t232 vbias1.t60 vt.t80 vdd sky130_fd_pr__pfet_01v8_lvt ad=0p pd=0u as=0p ps=0u w=4e+06u l=2e+06u
X171 vdd.t91 vbias2.t73 vsquare.t191 vdd sky130_fd_pr__pfet_01v8_lvt ad=0p pd=0u as=0p ps=0u w=4e+06u l=2e+06u
X172 a_23744_3840.t19 a_23744_3840.t18 vss.t6 vss sky130_fd_pr__nfet_01v8_lvt ad=0p pd=0u as=0p ps=0u w=3e+06u l=350000u
X173 a_23370_8306.t29 vbias1.t61 vdd.t233 vdd sky130_fd_pr__pfet_01v8_lvt ad=0p pd=0u as=0p ps=0u w=4e+06u l=2e+06u
X174 vdd.t234 vbias1.t62 vt.t81 vdd sky130_fd_pr__pfet_01v8_lvt ad=0p pd=0u as=0p ps=0u w=4e+06u l=2e+06u
X175 vsquare.t123 a_19926_29936.t40 vss.t167 vss sky130_fd_pr__nfet_01v8_lvt ad=0p pd=0u as=0p ps=0u w=3e+06u l=350000u
X176 vdd.t90 vbias2.t74 vsquare.t192 vdd sky130_fd_pr__pfet_01v8_lvt ad=0p pd=0u as=0p ps=0u w=4e+06u l=2e+06u
X177 vdd.t235 vbias1.t63 vt.t82 vdd sky130_fd_pr__pfet_01v8_lvt ad=0p pd=0u as=0p ps=0u w=4e+06u l=2e+06u
X178 vt.t174 a_19926_13536.t43 vss.t116 vss sky130_fd_pr__nfet_01v8_lvt ad=0p pd=0u as=0p ps=0u w=3e+06u l=350000u
X179 vdd.t89 vbias2.t75 vsquare.t193 vdd sky130_fd_pr__pfet_01v8_lvt ad=0p pd=0u as=0p ps=0u w=4e+06u l=2e+06u
X180 vsquare.t122 a_19926_29936.t41 vss.t168 vss sky130_fd_pr__nfet_01v8_lvt ad=0p pd=0u as=0p ps=0u w=3e+06u l=350000u
X181 vsquare.t121 a_19926_29936.t42 vss.t169 vss sky130_fd_pr__nfet_01v8_lvt ad=0p pd=0u as=0p ps=0u w=3e+06u l=350000u
X182 vt OTA_tri_0/vn sky130_fd_pr__cap_mim_m3_1 l=1.5e+07u w=1.5e+07u
X183 a_23744_3840.t8 OTA_tri_0/vn a_23370_8306.t21 vdd sky130_fd_pr__pfet_01v8_lvt ad=0p pd=0u as=0p ps=0u w=4e+06u l=350000u
X184 vdd.t236 vbias1.t64 vt.t83 vdd sky130_fd_pr__pfet_01v8_lvt ad=0p pd=0u as=0p ps=0u w=4e+06u l=2e+06u
X185 vt.t84 vbias1.t65 vdd.t237 vdd sky130_fd_pr__pfet_01v8_lvt ad=0p pd=0u as=0p ps=0u w=4e+06u l=2e+06u
X186 vdd.t88 vbias2.t76 vsquare.t194 vdd sky130_fd_pr__pfet_01v8_lvt ad=0p pd=0u as=0p ps=0u w=4e+06u l=2e+06u
X187 vss.t115 a_19926_13536.t44 vt.t173 vss sky130_fd_pr__nfet_01v8_lvt ad=0p pd=0u as=0p ps=0u w=3e+06u l=350000u
X188 vdd.t238 vbias1.t66 vt.t85 vdd sky130_fd_pr__pfet_01v8_lvt ad=0p pd=0u as=0p ps=0u w=4e+06u l=2e+06u
X189 a_23370_8306.t30 vbias1.t67 vdd.t239 vdd sky130_fd_pr__pfet_01v8_lvt ad=0p pd=0u as=0p ps=0u w=4e+06u l=2e+06u
X190 vt.t172 a_19926_13536.t45 vss.t114 vss sky130_fd_pr__nfet_01v8_lvt ad=0p pd=0u as=0p ps=0u w=3e+06u l=350000u
X191 vdd.t87 vbias2.t77 vsquare.t195 vdd sky130_fd_pr__pfet_01v8_lvt ad=0p pd=0u as=0p ps=0u w=4e+06u l=2e+06u
X192 vsquare.t196 vbias2.t78 vdd.t86 vdd sky130_fd_pr__pfet_01v8_lvt ad=0p pd=0u as=0p ps=0u w=4e+06u l=2e+06u
X193 vdd.t146 vbias1.t68 vt.t1 vdd sky130_fd_pr__pfet_01v8_lvt ad=0p pd=0u as=0p ps=0u w=4e+06u l=2e+06u
X194 a_23370_8306.t7 vref.t7 a_19926_13536.t11 vdd sky130_fd_pr__pfet_01v8_lvt ad=0p pd=0u as=0p ps=0u w=4e+06u l=350000u
X196 vsquare.t120 a_19926_29936.t43 vss.t36 vss sky130_fd_pr__nfet_01v8_lvt ad=0p pd=0u as=0p ps=0u w=3e+06u l=350000u
X197 vss.t37 a_19926_29936.t44 vsquare.t119 vss sky130_fd_pr__nfet_01v8_lvt ad=0p pd=0u as=0p ps=0u w=3e+06u l=350000u
X198 vt OTA_tri_0/vn sky130_fd_pr__cap_mim_m3_1 l=1.5e+07u w=1.5e+07u
X199 vdd.t247 vbias1.t18 vbias1.t19 vdd sky130_fd_pr__pfet_01v8_lvt ad=0p pd=0u as=0p ps=0u w=4e+06u l=2e+06u
X200 vt.t171 a_19926_13536.t46 vss.t113 vss sky130_fd_pr__nfet_01v8_lvt ad=0p pd=0u as=0p ps=0u w=3e+06u l=350000u
X201 vss.t112 a_19926_13536.t47 vt.t170 vss sky130_fd_pr__nfet_01v8_lvt ad=0p pd=0u as=0p ps=0u w=3e+06u l=350000u
X202 vt.t169 a_19926_13536.t48 vss.t111 vss sky130_fd_pr__nfet_01v8_lvt ad=0p pd=0u as=0p ps=0u w=3e+06u l=350000u
X203 vdd.t85 vbias2.t79 vsquare.t197 vdd sky130_fd_pr__pfet_01v8_lvt ad=0p pd=0u as=0p ps=0u w=4e+06u l=2e+06u
X204 vsquare.t118 a_19926_29936.t45 vss.t38 vss sky130_fd_pr__nfet_01v8_lvt ad=0p pd=0u as=0p ps=0u w=3e+06u l=350000u
X205 vt OTA_tri_0/vn sky130_fd_pr__cap_mim_m3_1 l=1.5e+07u w=1.5e+07u
X206 vss.t39 a_19926_29936.t46 vsquare.t117 vss sky130_fd_pr__nfet_01v8_lvt ad=0p pd=0u as=0p ps=0u w=3e+06u l=350000u
X207 a_23744_20184.t9 vref.t8 a_23370_24650.t8 vdd sky130_fd_pr__pfet_01v8_lvt ad=0p pd=0u as=0p ps=0u w=4e+06u l=350000u
X208 vsquare.t198 vbias2.t80 vdd.t84 vdd sky130_fd_pr__pfet_01v8_lvt ad=0p pd=0u as=0p ps=0u w=4e+06u l=2e+06u
X209 a_23370_8306.t15 OTA_tri_0/vn a_23744_3840.t7 vdd sky130_fd_pr__pfet_01v8_lvt ad=0p pd=0u as=0p ps=0u w=4e+06u l=350000u
X210 vdd.t147 vbias1.t69 vt.t2 vdd sky130_fd_pr__pfet_01v8_lvt ad=0p pd=0u as=0p ps=0u w=4e+06u l=2e+06u
X211 vsquare.t116 a_19926_29936.t47 vss.t40 vss sky130_fd_pr__nfet_01v8_lvt ad=0p pd=0u as=0p ps=0u w=3e+06u l=350000u
X213 vss.t41 a_19926_29936.t48 vsquare.t115 vss sky130_fd_pr__nfet_01v8_lvt ad=0p pd=0u as=0p ps=0u w=3e+06u l=350000u
X214 vdd.t148 vbias1.t70 vt.t3 vdd sky130_fd_pr__pfet_01v8_lvt ad=0p pd=0u as=0p ps=0u w=4e+06u l=2e+06u
X215 vt.t4 vbias1.t71 vdd.t149 vdd sky130_fd_pr__pfet_01v8_lvt ad=0p pd=0u as=0p ps=0u w=4e+06u l=2e+06u
X216 vt.t168 a_19926_13536.t49 vss.t110 vss sky130_fd_pr__nfet_01v8_lvt ad=0p pd=0u as=0p ps=0u w=3e+06u l=350000u
X217 vt.t167 a_19926_13536.t50 vss.t109 vss sky130_fd_pr__nfet_01v8_lvt ad=0p pd=0u as=0p ps=0u w=3e+06u l=350000u
X218 vsquare.t199 vbias2.t81 vdd.t83 vdd sky130_fd_pr__pfet_01v8_lvt ad=0p pd=0u as=0p ps=0u w=4e+06u l=2e+06u
X219 vss.t42 a_19926_29936.t49 vsquare.t114 vss sky130_fd_pr__nfet_01v8_lvt ad=0p pd=0u as=0p ps=0u w=3e+06u l=350000u
X220 vss.t43 a_19926_29936.t50 vsquare.t113 vss sky130_fd_pr__nfet_01v8_lvt ad=0p pd=0u as=0p ps=0u w=3e+06u l=350000u
X221 vsquare.t200 vbias2.t82 vdd.t82 vdd sky130_fd_pr__pfet_01v8_lvt ad=0p pd=0u as=0p ps=0u w=4e+06u l=2e+06u
X222 vbias1.t17 vbias1.t16 vdd.t246 vdd sky130_fd_pr__pfet_01v8_lvt ad=0p pd=0u as=0p ps=0u w=4e+06u l=2e+06u
X223 vdd.t150 vbias1.t72 vt.t5 vdd sky130_fd_pr__pfet_01v8_lvt ad=0p pd=0u as=0p ps=0u w=4e+06u l=2e+06u
X226 vsquare.t201 vbias2.t83 vdd.t81 vdd sky130_fd_pr__pfet_01v8_lvt ad=0p pd=0u as=0p ps=0u w=4e+06u l=2e+06u
X227 vdd.t151 vbias1.t73 vt.t6 vdd sky130_fd_pr__pfet_01v8_lvt ad=0p pd=0u as=0p ps=0u w=4e+06u l=2e+06u
X228 vt.t7 vbias1.t74 vdd.t152 vdd sky130_fd_pr__pfet_01v8_lvt ad=0p pd=0u as=0p ps=0u w=4e+06u l=2e+06u
X229 vss.t44 a_19926_29936.t51 vsquare.t112 vss sky130_fd_pr__nfet_01v8_lvt ad=0p pd=0u as=0p ps=0u w=3e+06u l=350000u
X230 vt.t166 a_19926_13536.t51 vss.t108 vss sky130_fd_pr__nfet_01v8_lvt ad=0p pd=0u as=0p ps=0u w=3e+06u l=350000u
X231 a_19926_13536.t0 vref.t9 a_23370_8306.t6 vdd sky130_fd_pr__pfet_01v8_lvt ad=0p pd=0u as=0p ps=0u w=4e+06u l=350000u
X232 a_23744_20184.t5 vref.t10 a_23370_24650.t7 vdd sky130_fd_pr__pfet_01v8_lvt ad=0p pd=0u as=0p ps=0u w=4e+06u l=350000u
X233 vt.t165 a_19926_13536.t52 vss.t107 vss sky130_fd_pr__nfet_01v8_lvt ad=0p pd=0u as=0p ps=0u w=3e+06u l=350000u
X234 a_23370_24650.t6 vref.t11 a_23744_20184.t6 vdd sky130_fd_pr__pfet_01v8_lvt ad=0p pd=0u as=0p ps=0u w=4e+06u l=350000u
X235 vss.t45 a_19926_29936.t52 vsquare.t111 vss sky130_fd_pr__nfet_01v8_lvt ad=0p pd=0u as=0p ps=0u w=3e+06u l=350000u
X236 a_23744_3840.t6 OTA_tri_0/vn a_23370_8306.t20 vdd sky130_fd_pr__pfet_01v8_lvt ad=0p pd=0u as=0p ps=0u w=4e+06u l=350000u
X237 vt.t8 vbias1.t75 vdd.t153 vdd sky130_fd_pr__pfet_01v8_lvt ad=0p pd=0u as=0p ps=0u w=4e+06u l=2e+06u
X238 vt.t9 vbias1.t76 vdd.t154 vdd sky130_fd_pr__pfet_01v8_lvt ad=0p pd=0u as=0p ps=0u w=4e+06u l=2e+06u
X239 vsquare.t0 vbias2.t84 vdd.t80 vdd sky130_fd_pr__pfet_01v8_lvt ad=0p pd=0u as=0p ps=0u w=4e+06u l=2e+06u
X240 vbias1.t15 vbias1.t14 vdd.t245 vdd sky130_fd_pr__pfet_01v8_lvt ad=0p pd=0u as=0p ps=0u w=4e+06u l=2e+06u
X241 vt.t164 a_19926_13536.t53 vss.t106 vss sky130_fd_pr__nfet_01v8_lvt ad=0p pd=0u as=0p ps=0u w=3e+06u l=350000u
X242 vss.t46 a_19926_29936.t53 vsquare.t110 vss sky130_fd_pr__nfet_01v8_lvt ad=0p pd=0u as=0p ps=0u w=3e+06u l=350000u
X243 vdd.t155 vbias1.t77 vt.t10 vdd sky130_fd_pr__pfet_01v8_lvt ad=0p pd=0u as=0p ps=0u w=4e+06u l=2e+06u
X244 vt.t163 a_19926_13536.t54 vss.t105 vss sky130_fd_pr__nfet_01v8_lvt ad=0p pd=0u as=0p ps=0u w=3e+06u l=350000u
X245 a_19926_29936.t1 a_23744_20184.t21 vss.t5 vss sky130_fd_pr__nfet_01v8_lvt ad=0p pd=0u as=0p ps=0u w=3e+06u l=350000u
X246 vsquare.t1 vbias2.t85 vdd.t79 vdd sky130_fd_pr__pfet_01v8_lvt ad=0p pd=0u as=0p ps=0u w=4e+06u l=2e+06u
X247 vss.t47 a_19926_29936.t54 vsquare.t109 vss sky130_fd_pr__nfet_01v8_lvt ad=0p pd=0u as=0p ps=0u w=3e+06u l=350000u
X248 a_23370_8306.t24 vbias1.t78 vdd.t156 vdd sky130_fd_pr__pfet_01v8_lvt ad=0p pd=0u as=0p ps=0u w=4e+06u l=2e+06u
X249 vdd.t157 vbias1.t79 vt.t11 vdd sky130_fd_pr__pfet_01v8_lvt ad=0p pd=0u as=0p ps=0u w=4e+06u l=2e+06u
X250 a_19926_29936.t12 OTA_0/vp a_23370_24650.t30 vdd sky130_fd_pr__pfet_01v8_lvt ad=0p pd=0u as=0p ps=0u w=4e+06u l=350000u
X251 vss.t48 a_19926_29936.t55 vsquare.t108 vss sky130_fd_pr__nfet_01v8_lvt ad=0p pd=0u as=0p ps=0u w=3e+06u l=350000u
X252 vsquare.t2 vbias2.t86 vdd.t78 vdd sky130_fd_pr__pfet_01v8_lvt ad=0p pd=0u as=0p ps=0u w=4e+06u l=2e+06u
X253 a_19926_13536.t12 vref.t12 a_23370_8306.t5 vdd sky130_fd_pr__pfet_01v8_lvt ad=0p pd=0u as=0p ps=0u w=4e+06u l=350000u
X254 vdd.t77 vbias2.t87 vsquare.t3 vdd sky130_fd_pr__pfet_01v8_lvt ad=0p pd=0u as=0p ps=0u w=4e+06u l=2e+06u
X255 vt.t12 vbias1.t80 vdd.t158 vdd sky130_fd_pr__pfet_01v8_lvt ad=0p pd=0u as=0p ps=0u w=4e+06u l=2e+06u
X256 vdd.t159 vbias1.t81 vt.t13 vdd sky130_fd_pr__pfet_01v8_lvt ad=0p pd=0u as=0p ps=0u w=4e+06u l=2e+06u
X257 vss.t49 a_19926_29936.t56 vsquare.t107 vss sky130_fd_pr__nfet_01v8_lvt ad=0p pd=0u as=0p ps=0u w=3e+06u l=350000u
X258 vt.t162 a_19926_13536.t55 vss.t104 vss sky130_fd_pr__nfet_01v8_lvt ad=0p pd=0u as=0p ps=0u w=3e+06u l=350000u
X259 vt.t14 vbias1.t82 vdd.t160 vdd sky130_fd_pr__pfet_01v8_lvt ad=0p pd=0u as=0p ps=0u w=4e+06u l=2e+06u
X260 vss.t103 a_19926_13536.t56 vt.t161 vss sky130_fd_pr__nfet_01v8_lvt ad=0p pd=0u as=0p ps=0u w=3e+06u l=350000u
X261 vt.t160 a_19926_13536.t57 vss.t102 vss sky130_fd_pr__nfet_01v8_lvt ad=0p pd=0u as=0p ps=0u w=3e+06u l=350000u
X262 vsquare.t4 vbias2.t88 vdd.t76 vdd sky130_fd_pr__pfet_01v8_lvt ad=0p pd=0u as=0p ps=0u w=4e+06u l=2e+06u
X263 a_23744_20184.t17 a_23744_20184.t16 vss.t3 vss sky130_fd_pr__nfet_01v8_lvt ad=0p pd=0u as=0p ps=0u w=3e+06u l=350000u
X264 vss.t50 a_19926_29936.t57 vsquare.t106 vss sky130_fd_pr__nfet_01v8_lvt ad=0p pd=0u as=0p ps=0u w=3e+06u l=350000u
X265 vsquare.t5 vbias2.t89 vdd.t75 vdd sky130_fd_pr__pfet_01v8_lvt ad=0p pd=0u as=0p ps=0u w=4e+06u l=2e+06u
X266 vss.t51 a_19926_29936.t58 vsquare.t105 vss sky130_fd_pr__nfet_01v8_lvt ad=0p pd=0u as=0p ps=0u w=3e+06u l=350000u
X267 vdd.t161 vbias1.t83 vt.t15 vdd sky130_fd_pr__pfet_01v8_lvt ad=0p pd=0u as=0p ps=0u w=4e+06u l=2e+06u
X268 a_23370_8306.t25 vbias1.t84 vdd.t162 vdd sky130_fd_pr__pfet_01v8_lvt ad=0p pd=0u as=0p ps=0u w=4e+06u l=2e+06u
X269 vsquare.t6 vbias2.t90 vdd.t74 vdd sky130_fd_pr__pfet_01v8_lvt ad=0p pd=0u as=0p ps=0u w=4e+06u l=2e+06u
X270 vdd.t163 vbias1.t85 vt.t16 vdd sky130_fd_pr__pfet_01v8_lvt ad=0p pd=0u as=0p ps=0u w=4e+06u l=2e+06u
X271 vbias1.t13 vbias1.t12 vdd.t244 vdd sky130_fd_pr__pfet_01v8_lvt ad=0p pd=0u as=0p ps=0u w=4e+06u l=2e+06u
X273 vdd.t73 vbias2.t91 a_23370_24650.t17 vdd sky130_fd_pr__pfet_01v8_lvt ad=0p pd=0u as=0p ps=0u w=4e+06u l=2e+06u
X274 vt OTA_tri_0/vn sky130_fd_pr__cap_mim_m3_1 l=1.5e+07u w=1.5e+07u
X275 vsquare.t7 vbias2.t92 vdd.t72 vdd sky130_fd_pr__pfet_01v8_lvt ad=0p pd=0u as=0p ps=0u w=4e+06u l=2e+06u