* NGSPICE file created from triangle_revised_post.ext - technology: sky130A

.subckt triangle_revised_post vdd vbias1 vbias2 vref vss vsquare vt
X0 vdd.t174 vbias2.t12 vbias2.t13 vdd sky130_fd_pr__pfet_01v8_lvt ad=0p pd=0u as=0p ps=0u w=2e+06u l=1e+06u
X1 w_1705_3239.t51 vbias1.t48 vdd.t65 vdd sky130_fd_pr__pfet_01v8_lvt ad=0p pd=0u as=0p ps=0u w=2e+06u l=1e+06u
X2 a_1901_1139.t39 a_1901_1139.t38 vss.t157 vss sky130_fd_pr__nfet_01v8_lvt ad=0p pd=0u as=0p ps=0u w=1e+06u l=1e+06u
X3 vdd.t173 vbias2.t48 vsquare.t94 vdd sky130_fd_pr__pfet_01v8_lvt ad=0p pd=0u as=0p ps=0u w=2e+06u l=1e+06u
X4 a_1901_1139.t37 a_1901_1139.t36 vss.t156 vss sky130_fd_pr__nfet_01v8_lvt ad=0p pd=0u as=0p ps=0u w=1e+06u l=1e+06u
X5 vss.t163 a_15425_1139.t30 a_15425_1139.t31 vss sky130_fd_pr__nfet_01v8_lvt ad=0p pd=0u as=0p ps=0u w=1e+06u l=1e+06u
X6 vss.t47 a_16369_1227.t33 vsquare.t20 vss sky130_fd_pr__nfet_01v8_lvt ad=0p pd=0u as=0p ps=0u w=1e+06u l=1e+06u
X7 vdd.t66 vbias1.t49 vt.t0 vdd sky130_fd_pr__pfet_01v8_lvt ad=0p pd=0u as=0p ps=0u w=2e+06u l=1e+06u
X8 vss.t62 a_15425_1139.t28 a_15425_1139.t29 vss sky130_fd_pr__nfet_01v8_lvt ad=0p pd=0u as=0p ps=0u w=1e+06u l=1e+06u
X9 vss.t48 a_16369_1227.t34 vsquare.t21 vss sky130_fd_pr__nfet_01v8_lvt ad=0p pd=0u as=0p ps=0u w=1e+06u l=1e+06u
X10 vss.t57 a_2845_1227.t33 vt.t0 vss sky130_fd_pr__nfet_01v8_lvt ad=0p pd=0u as=0p ps=0u w=1e+06u l=1e+06u
X11 w_1705_3239.t50 vbias1.t50 vdd.t67 vdd sky130_fd_pr__pfet_01v8_lvt ad=0p pd=0u as=0p ps=0u w=2e+06u l=1e+06u
X12 vdd.t172 vbias2.t49 vsquare.t93 vdd sky130_fd_pr__pfet_01v8_lvt ad=0p pd=0u as=0p ps=0u w=2e+06u l=1e+06u
X13 vss.t40 a_15425_1139.t26 a_15425_1139.t27 vss sky130_fd_pr__nfet_01v8_lvt ad=0p pd=0u as=0p ps=0u w=1e+06u l=1e+06u
X14 vss.t58 a_2845_1227.t34 vt.t0 vss sky130_fd_pr__nfet_01v8_lvt ad=0p pd=0u as=0p ps=0u w=1e+06u l=1e+06u
X15 vss.t92 a_15425_1139.t24 a_15425_1139.t25 vss sky130_fd_pr__nfet_01v8_lvt ad=0p pd=0u as=0p ps=0u w=1e+06u l=1e+06u
X16 vt.t0 vbias1.t51 vdd.t68 vdd sky130_fd_pr__pfet_01v8_lvt ad=0p pd=0u as=0p ps=0u w=2e+06u l=1e+06u
X17 w_1705_3239.t49 vbias1.t52 vdd.t18 vdd sky130_fd_pr__pfet_01v8_lvt ad=0p pd=0u as=0p ps=0u w=2e+06u l=1e+06u
X18 a_16369_1227.t16 OTA_revised_0/vp w_15229_3239.t18 w_15229_3239# sky130_fd_pr__pfet_01v8_lvt ad=0p pd=0u as=0p ps=0u w=4e+06u l=1e+06u
X19 a_n1703_5991# a_n471_5673# vss sky130_fd_pr__res_xhigh_po w=350000u l=4e+06u
X20 vdd.t171 vbias2.t50 w_15229_3239.t51 vdd sky130_fd_pr__pfet_01v8_lvt ad=0p pd=0u as=0p ps=0u w=2e+06u l=1e+06u
X21 vsquare.t101 a_16369_1227.t35 vss.t172 vss sky130_fd_pr__nfet_01v8_lvt ad=0p pd=0u as=0p ps=0u w=1e+06u l=1e+06u
X22 w_15229_3239.t17 OTA_revised_0/vp a_16369_1227.t20 w_15229_3239# sky130_fd_pr__pfet_01v8_lvt ad=0p pd=0u as=0p ps=0u w=4e+06u l=1e+06u
X23 a_1901_1139.t15 OTA_tri_revised_0/vn w_1705_3239.t15 w_1705_3239# sky130_fd_pr__pfet_01v8_lvt ad=0p pd=0u as=0p ps=0u w=4e+06u l=1e+06u
X24 vsquare.t102 a_16369_1227.t36 vss.t173 vss sky130_fd_pr__nfet_01v8_lvt ad=0p pd=0u as=0p ps=0u w=1e+06u l=1e+06u
X25 vdd.t19 vbias1.t53 vt.t0 vdd sky130_fd_pr__pfet_01v8_lvt ad=0p pd=0u as=0p ps=0u w=2e+06u l=1e+06u
X26 vdd.t170 vbias2.t51 w_15229_3239.t50 vdd sky130_fd_pr__pfet_01v8_lvt ad=0p pd=0u as=0p ps=0u w=2e+06u l=1e+06u
X27 vdd.t20 vbias1.t54 w_1705_3239.t48 vdd sky130_fd_pr__pfet_01v8_lvt ad=0p pd=0u as=0p ps=0u w=2e+06u l=1e+06u
X28 a_15425_1139.t34 vref.t0 w_15229_3239.t2 w_15229_3239# sky130_fd_pr__pfet_01v8_lvt ad=0p pd=0u as=0p ps=0u w=4e+06u l=1e+06u
X29 w_1705_3239.t47 vbias1.t55 vdd.t56 vdd sky130_fd_pr__pfet_01v8_lvt ad=0p pd=0u as=0p ps=0u w=2e+06u l=1e+06u
X30 vss.t10 a_16369_1227.t37 vsquare.t6 vss sky130_fd_pr__nfet_01v8_lvt ad=0p pd=0u as=0p ps=0u w=1e+06u l=1e+06u
X31 a_15425_1139.t46 vref.t1 w_15229_3239.t54 w_15229_3239# sky130_fd_pr__pfet_01v8_lvt ad=0p pd=0u as=0p ps=0u w=4e+06u l=1e+06u
X32 vt.t0 vbias1.t56 vdd.t57 vdd sky130_fd_pr__pfet_01v8_lvt ad=0p pd=0u as=0p ps=0u w=2e+06u l=1e+06u
X33 vss.t11 a_16369_1227.t38 vsquare.t7 vss sky130_fd_pr__nfet_01v8_lvt ad=0p pd=0u as=0p ps=0u w=1e+06u l=1e+06u
X34 a_2845_1227.t28 a_1901_1139.t48 vss.t155 vss sky130_fd_pr__nfet_01v8_lvt ad=0p pd=0u as=0p ps=0u w=1e+06u l=1e+06u
X35 vss.t45 a_16369_1227.t39 vsquare.t18 vss sky130_fd_pr__nfet_01v8_lvt ad=0p pd=0u as=0p ps=0u w=1e+06u l=1e+06u
X36 a_2845_1227.t27 a_1901_1139.t49 vss.t154 vss sky130_fd_pr__nfet_01v8_lvt ad=0p pd=0u as=0p ps=0u w=1e+06u l=1e+06u
X37 vss.t46 a_16369_1227.t40 vsquare.t19 vss sky130_fd_pr__nfet_01v8_lvt ad=0p pd=0u as=0p ps=0u w=1e+06u l=1e+06u
X38 vdd.t169 vbias2.t52 w_15229_3239.t49 vdd sky130_fd_pr__pfet_01v8_lvt ad=0p pd=0u as=0p ps=0u w=2e+06u l=1e+06u
X39 a_16369_1227.t32 a_20559_4831# vss sky130_fd_pr__res_xhigh_po w=350000u l=500000u
X40 w_1705_3239.t14 OTA_tri_revised_0/vn a_1901_1139.t14 w_1705_3239# sky130_fd_pr__pfet_01v8_lvt ad=0p pd=0u as=0p ps=0u w=4e+06u l=1e+06u
X41 vdd.t58 vbias1.t57 vt.t0 vdd sky130_fd_pr__pfet_01v8_lvt ad=0p pd=0u as=0p ps=0u w=2e+06u l=1e+06u
X42 w_1705_3239.t54 vref.t2 a_2845_1227.t31 w_1705_3239# sky130_fd_pr__pfet_01v8_lvt ad=0p pd=0u as=0p ps=0u w=4e+06u l=1e+06u
X43 vt.t0 vbias1.t58 vdd.t2 vdd sky130_fd_pr__pfet_01v8_lvt ad=0p pd=0u as=0p ps=0u w=2e+06u l=1e+06u
X44 vt.t0 a_2845_1227.t35 vss.t71 vss sky130_fd_pr__nfet_01v8_lvt ad=0p pd=0u as=0p ps=0u w=1e+06u l=1e+06u
X45 vt.t0 a_2845_1227.t36 vss.t72 vss sky130_fd_pr__nfet_01v8_lvt ad=0p pd=0u as=0p ps=0u w=1e+06u l=1e+06u
X46 vdd.t3 vbias1.t59 vt.t0 vdd sky130_fd_pr__pfet_01v8_lvt ad=0p pd=0u as=0p ps=0u w=2e+06u l=1e+06u
X47 vss.t177 a_16369_1227.t41 vsquare.t105 vss sky130_fd_pr__nfet_01v8_lvt ad=0p pd=0u as=0p ps=0u w=1e+06u l=1e+06u
X48 vt.t0 a_2845_1227.t37 vss.t85 vss sky130_fd_pr__nfet_01v8_lvt ad=0p pd=0u as=0p ps=0u w=1e+06u l=1e+06u
X49 vss.t178 a_16369_1227.t42 vsquare.t106 vss sky130_fd_pr__nfet_01v8_lvt ad=0p pd=0u as=0p ps=0u w=1e+06u l=1e+06u
X50 vdd.t168 vbias2.t53 vsquare.t92 vdd sky130_fd_pr__pfet_01v8_lvt ad=0p pd=0u as=0p ps=0u w=2e+06u l=1e+06u
X51 vdd.t167 vbias2.t54 w_15229_3239.t48 vdd sky130_fd_pr__pfet_01v8_lvt ad=0p pd=0u as=0p ps=0u w=2e+06u l=1e+06u
X52 vdd.t4 vbias1.t60 vt.t0 vdd sky130_fd_pr__pfet_01v8_lvt ad=0p pd=0u as=0p ps=0u w=2e+06u l=1e+06u
X53 vt.t0 a_2845_1227.t38 vss.t86 vss sky130_fd_pr__nfet_01v8_lvt ad=0p pd=0u as=0p ps=0u w=1e+06u l=1e+06u
X54 OTA_tri_revised_0/vn vt sky130_fd_pr__cap_mim_m3_1 l=1.5e+07u w=1.5e+07u
X55 a_n1703_6627# a_n471_6309# vss sky130_fd_pr__res_xhigh_po w=350000u l=4e+06u
X56 vt.t0 vbias1.t61 vdd.t15 vdd sky130_fd_pr__pfet_01v8_lvt ad=0p pd=0u as=0p ps=0u w=2e+06u l=1e+06u
X57 vsquare.t91 vbias2.t55 vdd.t166 vdd sky130_fd_pr__pfet_01v8_lvt ad=0p pd=0u as=0p ps=0u w=2e+06u l=1e+06u
X58 vsquare.t45 a_16369_1227.t43 vss.t164 vss sky130_fd_pr__nfet_01v8_lvt ad=0p pd=0u as=0p ps=0u w=1e+06u l=1e+06u
X59 OTA_tri_revised_0/vn vt sky130_fd_pr__cap_mim_m3_1 l=1.5e+07u w=1.5e+07u
X60 vdd.t16 vbias1.t62 vt.t0 vdd sky130_fd_pr__pfet_01v8_lvt ad=0p pd=0u as=0p ps=0u w=2e+06u l=1e+06u
X61 vsquare.t46 a_16369_1227.t44 vss.t165 vss sky130_fd_pr__nfet_01v8_lvt ad=0p pd=0u as=0p ps=0u w=1e+06u l=1e+06u
X62 vdd.t17 vbias1.t63 vt.t0 vdd sky130_fd_pr__pfet_01v8_lvt ad=0p pd=0u as=0p ps=0u w=2e+06u l=1e+06u
X63 vsquare.t36 a_16369_1227.t45 vss.t114 vss sky130_fd_pr__nfet_01v8_lvt ad=0p pd=0u as=0p ps=0u w=1e+06u l=1e+06u
X64 a_15425_1139.t40 vref.t3 w_15229_3239.t24 w_15229_3239# sky130_fd_pr__pfet_01v8_lvt ad=0p pd=0u as=0p ps=0u w=4e+06u l=1e+06u
X65 vsquare.t37 a_16369_1227.t46 vss.t115 vss sky130_fd_pr__nfet_01v8_lvt ad=0p pd=0u as=0p ps=0u w=1e+06u l=1e+06u
X66 vdd.t165 vbias2.t18 vbias2.t19 vdd sky130_fd_pr__pfet_01v8_lvt ad=0p pd=0u as=0p ps=0u w=2e+06u l=1e+06u
X67 vdd.t64 vbias1.t46 vbias1.t47 vdd sky130_fd_pr__pfet_01v8_lvt ad=0p pd=0u as=0p ps=0u w=2e+06u l=1e+06u
X68 w_15229_3239.t16 OTA_revised_0/vp a_16369_1227.t29 w_15229_3239# sky130_fd_pr__pfet_01v8_lvt ad=0p pd=0u as=0p ps=0u w=4e+06u l=1e+06u
X69 w_15229_3239.t47 vbias2.t56 vdd.t164 vdd sky130_fd_pr__pfet_01v8_lvt ad=0p pd=0u as=0p ps=0u w=2e+06u l=1e+06u
X70 w_1705_3239.t46 vbias1.t64 vdd.t53 vdd sky130_fd_pr__pfet_01v8_lvt ad=0p pd=0u as=0p ps=0u w=2e+06u l=1e+06u
X71 vdd.t163 vbias2.t8 vbias2.t9 vdd sky130_fd_pr__pfet_01v8_lvt ad=0p pd=0u as=0p ps=0u w=2e+06u l=1e+06u
X72 w_15229_3239.t46 vbias2.t57 vdd.t162 vdd sky130_fd_pr__pfet_01v8_lvt ad=0p pd=0u as=0p ps=0u w=2e+06u l=1e+06u
X73 a_2845_1227.t26 a_1901_1139.t50 vss.t153 vss sky130_fd_pr__nfet_01v8_lvt ad=0p pd=0u as=0p ps=0u w=1e+06u l=1e+06u
X74 vss.t38 a_2845_1227.t39 vt.t0 vss sky130_fd_pr__nfet_01v8_lvt ad=0p pd=0u as=0p ps=0u w=1e+06u l=1e+06u
X75 a_2845_1227.t25 a_1901_1139.t51 vss.t152 vss sky130_fd_pr__nfet_01v8_lvt ad=0p pd=0u as=0p ps=0u w=1e+06u l=1e+06u
X76 w_1705_3239.t21 vref.t4 a_2845_1227.t5 w_1705_3239# sky130_fd_pr__pfet_01v8_lvt ad=0p pd=0u as=0p ps=0u w=4e+06u l=1e+06u
X77 vbias1.t45 vbias1.t44 vdd.t59 vdd sky130_fd_pr__pfet_01v8_lvt ad=0p pd=0u as=0p ps=0u w=2e+06u l=1e+06u
X78 vss.t39 a_2845_1227.t40 vt.t0 vss sky130_fd_pr__nfet_01v8_lvt ad=0p pd=0u as=0p ps=0u w=1e+06u l=1e+06u
X79 w_15229_3239.t45 vbias2.t58 vdd.t161 vdd sky130_fd_pr__pfet_01v8_lvt ad=0p pd=0u as=0p ps=0u w=2e+06u l=1e+06u
X80 OTA_tri_revised_0/vn vt sky130_fd_pr__cap_mim_m3_1 l=1.5e+07u w=1.5e+07u
X81 vss.t109 a_2845_1227.t41 vt.t0 vss sky130_fd_pr__nfet_01v8_lvt ad=0p pd=0u as=0p ps=0u w=1e+06u l=1e+06u
X82 a_1901_1139.t13 OTA_tri_revised_0/vn w_1705_3239.t13 w_1705_3239# sky130_fd_pr__pfet_01v8_lvt ad=0p pd=0u as=0p ps=0u w=4e+06u l=1e+06u
X83 vdd.t160 vbias2.t59 vsquare.t90 vdd sky130_fd_pr__pfet_01v8_lvt ad=0p pd=0u as=0p ps=0u w=2e+06u l=1e+06u
X84 vdd.t54 vbias1.t65 vt.t0 vdd sky130_fd_pr__pfet_01v8_lvt ad=0p pd=0u as=0p ps=0u w=2e+06u l=1e+06u
X85 vss.t110 a_2845_1227.t42 vt.t0 vss sky130_fd_pr__nfet_01v8_lvt ad=0p pd=0u as=0p ps=0u w=1e+06u l=1e+06u
X86 vt.t0 vbias1.t66 vdd.t55 vdd sky130_fd_pr__pfet_01v8_lvt ad=0p pd=0u as=0p ps=0u w=2e+06u l=1e+06u
X87 vss.t4 a_16369_1227.t47 vsquare.t2 vss sky130_fd_pr__nfet_01v8_lvt ad=0p pd=0u as=0p ps=0u w=1e+06u l=1e+06u
X88 vdd.t159 vbias2.t60 w_15229_3239.t44 vdd sky130_fd_pr__pfet_01v8_lvt ad=0p pd=0u as=0p ps=0u w=2e+06u l=1e+06u
X89 vss.t5 a_16369_1227.t48 vsquare.t3 vss sky130_fd_pr__nfet_01v8_lvt ad=0p pd=0u as=0p ps=0u w=1e+06u l=1e+06u
X90 vss.t103 a_2845_1227.t43 vt.t0 vss sky130_fd_pr__nfet_01v8_lvt ad=0p pd=0u as=0p ps=0u w=1e+06u l=1e+06u
X91 vsquare.t89 vbias2.t61 vdd.t158 vdd sky130_fd_pr__pfet_01v8_lvt ad=0p pd=0u as=0p ps=0u w=2e+06u l=1e+06u
X92 vss.t104 a_2845_1227.t44 vt.t0 vss sky130_fd_pr__nfet_01v8_lvt ad=0p pd=0u as=0p ps=0u w=1e+06u l=1e+06u
X93 w_15229_3239.t23 vref.t5 a_15425_1139.t39 w_15229_3239# sky130_fd_pr__pfet_01v8_lvt ad=0p pd=0u as=0p ps=0u w=4e+06u l=1e+06u
X94 vsquare.t12 a_16369_1227.t49 vss.t28 vss sky130_fd_pr__nfet_01v8_lvt ad=0p pd=0u as=0p ps=0u w=1e+06u l=1e+06u
X95 a_2845_1227.t30 vref.t6 w_1705_3239.t53 w_1705_3239# sky130_fd_pr__pfet_01v8_lvt ad=0p pd=0u as=0p ps=0u w=4e+06u l=1e+06u
X96 vbias1.t43 vbias1.t42 vdd.t63 vdd sky130_fd_pr__pfet_01v8_lvt ad=0p pd=0u as=0p ps=0u w=2e+06u l=1e+06u
X97 vsquare.t13 a_16369_1227.t50 vss.t29 vss sky130_fd_pr__nfet_01v8_lvt ad=0p pd=0u as=0p ps=0u w=1e+06u l=1e+06u
X98 vdd.t44 vbias1.t67 vt.t0 vdd sky130_fd_pr__pfet_01v8_lvt ad=0p pd=0u as=0p ps=0u w=2e+06u l=1e+06u
X99 vsquare.t88 vbias2.t62 vdd.t157 vdd sky130_fd_pr__pfet_01v8_lvt ad=0p pd=0u as=0p ps=0u w=2e+06u l=1e+06u
X100 w_15229_3239.t27 vref.t7 a_15425_1139.t43 w_15229_3239# sky130_fd_pr__pfet_01v8_lvt ad=0p pd=0u as=0p ps=0u w=4e+06u l=1e+06u
X101 vt.t0 vbias1.t68 vdd.t45 vdd sky130_fd_pr__pfet_01v8_lvt ad=0p pd=0u as=0p ps=0u w=2e+06u l=1e+06u
X102 vbias2.t15 vbias2.t14 vdd.t156 vdd sky130_fd_pr__pfet_01v8_lvt ad=0p pd=0u as=0p ps=0u w=2e+06u l=1e+06u
X103 OTA_tri_revised_0/vn vt sky130_fd_pr__cap_mim_m3_1 l=1.5e+07u w=1.5e+07u
X104 a_1901_1139.t27 a_1901_1139.t26 vss.t151 vss sky130_fd_pr__nfet_01v8_lvt ad=0p pd=0u as=0p ps=0u w=1e+06u l=1e+06u
X105 w_15229_3239.t15 OTA_revised_0/vp a_16369_1227.t25 w_15229_3239# sky130_fd_pr__pfet_01v8_lvt ad=0p pd=0u as=0p ps=0u w=4e+06u l=1e+06u
X106 a_1901_1139.t25 a_1901_1139.t24 vss.t150 vss sky130_fd_pr__nfet_01v8_lvt ad=0p pd=0u as=0p ps=0u w=1e+06u l=1e+06u
X107 vss.t149 a_1901_1139.t22 a_1901_1139.t23 vss sky130_fd_pr__nfet_01v8_lvt ad=0p pd=0u as=0p ps=0u w=1e+06u l=1e+06u
X108 vsquare.t24 a_16369_1227.t51 vss.t65 vss sky130_fd_pr__nfet_01v8_lvt ad=0p pd=0u as=0p ps=0u w=1e+06u l=1e+06u
X109 vss.t148 a_1901_1139.t20 a_1901_1139.t21 vss sky130_fd_pr__nfet_01v8_lvt ad=0p pd=0u as=0p ps=0u w=1e+06u l=1e+06u
X110 w_1705_3239.t45 vbias1.t69 vdd.t46 vdd sky130_fd_pr__pfet_01v8_lvt ad=0p pd=0u as=0p ps=0u w=2e+06u l=1e+06u
X111 vsquare.t87 vbias2.t63 vdd.t155 vdd sky130_fd_pr__pfet_01v8_lvt ad=0p pd=0u as=0p ps=0u w=2e+06u l=1e+06u
X112 vsquare.t25 a_16369_1227.t52 vss.t66 vss sky130_fd_pr__nfet_01v8_lvt ad=0p pd=0u as=0p ps=0u w=1e+06u l=1e+06u
X113 a_2845_1227.t11 vref.t8 w_1705_3239.t27 w_1705_3239# sky130_fd_pr__pfet_01v8_lvt ad=0p pd=0u as=0p ps=0u w=4e+06u l=1e+06u
X114 vbias2.t11 vbias2.t10 vdd.t154 vdd sky130_fd_pr__pfet_01v8_lvt ad=0p pd=0u as=0p ps=0u w=2e+06u l=1e+06u
X115 vt.t0 vbias1.t70 vdd.t69 vdd sky130_fd_pr__pfet_01v8_lvt ad=0p pd=0u as=0p ps=0u w=2e+06u l=1e+06u
X116 a_n1703_5355# a_n471_5673# vss sky130_fd_pr__res_xhigh_po w=350000u l=4e+06u
X117 vss.t147 a_1901_1139.t52 a_2845_1227.t24 vss sky130_fd_pr__nfet_01v8_lvt ad=0p pd=0u as=0p ps=0u w=1e+06u l=1e+06u
X118 vdd.t153 vbias2.t64 vsquare.t86 vdd sky130_fd_pr__pfet_01v8_lvt ad=0p pd=0u as=0p ps=0u w=2e+06u l=1e+06u
X119 a_1901_1139.t12 OTA_tri_revised_0/vn w_1705_3239.t12 w_1705_3239# sky130_fd_pr__pfet_01v8_lvt ad=0p pd=0u as=0p ps=0u w=4e+06u l=1e+06u
X120 vss.t146 a_1901_1139.t53 a_2845_1227.t23 vss sky130_fd_pr__nfet_01v8_lvt ad=0p pd=0u as=0p ps=0u w=1e+06u l=1e+06u
X121 vt.t0 vbias1.t71 vdd.t70 vdd sky130_fd_pr__pfet_01v8_lvt ad=0p pd=0u as=0p ps=0u w=2e+06u l=1e+06u
X122 vss.t43 a_16369_1227.t53 vsquare.t16 vss sky130_fd_pr__nfet_01v8_lvt ad=0p pd=0u as=0p ps=0u w=1e+06u l=1e+06u
X123 vdd.t71 vbias1.t72 w_1705_3239.t44 vdd sky130_fd_pr__pfet_01v8_lvt ad=0p pd=0u as=0p ps=0u w=2e+06u l=1e+06u
X124 a_2845_1227.t12 a_5498_4688# vss sky130_fd_pr__res_xhigh_po w=350000u l=1.4e+06u
X125 vss.t44 a_16369_1227.t54 vsquare.t17 vss sky130_fd_pr__nfet_01v8_lvt ad=0p pd=0u as=0p ps=0u w=1e+06u l=1e+06u
X126 vdd.t152 vbias2.t0 vbias2.t1 vdd sky130_fd_pr__pfet_01v8_lvt ad=0p pd=0u as=0p ps=0u w=2e+06u l=1e+06u
X127 vss.t24 a_2845_1227.t45 vt.t0 vss sky130_fd_pr__nfet_01v8_lvt ad=0p pd=0u as=0p ps=0u w=1e+06u l=1e+06u
X128 vsquare.t85 vbias2.t65 vdd.t151 vdd sky130_fd_pr__pfet_01v8_lvt ad=0p pd=0u as=0p ps=0u w=2e+06u l=1e+06u
X129 vss.t25 a_2845_1227.t46 vt.t0 vss sky130_fd_pr__nfet_01v8_lvt ad=0p pd=0u as=0p ps=0u w=1e+06u l=1e+06u
X130 a_15425_1139.t23 a_15425_1139.t22 vss.t93 vss sky130_fd_pr__nfet_01v8_lvt ad=0p pd=0u as=0p ps=0u w=1e+06u l=1e+06u
X131 a_15425_1139.t21 a_15425_1139.t20 vss.t30 vss sky130_fd_pr__nfet_01v8_lvt ad=0p pd=0u as=0p ps=0u w=1e+06u l=1e+06u
X132 vt.t0 a_2845_1227.t47 vss.t55 vss sky130_fd_pr__nfet_01v8_lvt ad=0p pd=0u as=0p ps=0u w=1e+06u l=1e+06u
X133 w_15229_3239.t43 vbias2.t66 vdd.t150 vdd sky130_fd_pr__pfet_01v8_lvt ad=0p pd=0u as=0p ps=0u w=2e+06u l=1e+06u
X134 vt.t0 vbias1.t73 vdd.t27 vdd sky130_fd_pr__pfet_01v8_lvt ad=0p pd=0u as=0p ps=0u w=2e+06u l=1e+06u
X135 vt.t0 a_2845_1227.t48 vss.t56 vss sky130_fd_pr__nfet_01v8_lvt ad=0p pd=0u as=0p ps=0u w=1e+06u l=1e+06u
X136 w_1705_3239.t52 vref.t9 a_2845_1227.t29 w_1705_3239# sky130_fd_pr__pfet_01v8_lvt ad=0p pd=0u as=0p ps=0u w=4e+06u l=1e+06u
X137 vdd.t28 vbias1.t74 w_1705_3239.t43 vdd sky130_fd_pr__pfet_01v8_lvt ad=0p pd=0u as=0p ps=0u w=2e+06u l=1e+06u
X138 w_15229_3239.t42 vbias2.t67 vdd.t149 vdd sky130_fd_pr__pfet_01v8_lvt ad=0p pd=0u as=0p ps=0u w=2e+06u l=1e+06u
X139 a_16369_1227.t15 a_15425_1139.t48 vss.t88 vss sky130_fd_pr__nfet_01v8_lvt ad=0p pd=0u as=0p ps=0u w=1e+06u l=1e+06u
X140 vdd.t148 vbias2.t68 vsquare.t84 vdd sky130_fd_pr__pfet_01v8_lvt ad=0p pd=0u as=0p ps=0u w=2e+06u l=1e+06u
X141 a_16369_1227.t14 a_15425_1139.t49 vss.t119 vss sky130_fd_pr__nfet_01v8_lvt ad=0p pd=0u as=0p ps=0u w=1e+06u l=1e+06u
X142 vbias2.t29 vbias2.t28 vdd.t147 vdd sky130_fd_pr__pfet_01v8_lvt ad=0p pd=0u as=0p ps=0u w=2e+06u l=1e+06u
X143 vbias1.t41 vbias1.t40 vdd.t62 vdd sky130_fd_pr__pfet_01v8_lvt ad=0p pd=0u as=0p ps=0u w=2e+06u l=1e+06u
X144 OTA_tri_revised_0/vn vt sky130_fd_pr__cap_mim_m3_1 l=1.5e+07u w=1.5e+07u
X145 vdd.t29 vbias1.t75 vt.t0 vdd sky130_fd_pr__pfet_01v8_lvt ad=0p pd=0u as=0p ps=0u w=2e+06u l=1e+06u
X146 vss.t83 a_2845_1227.t49 vt.t0 vss sky130_fd_pr__nfet_01v8_lvt ad=0p pd=0u as=0p ps=0u w=1e+06u l=1e+06u
X147 vss.t84 a_2845_1227.t50 vt.t0 vss sky130_fd_pr__nfet_01v8_lvt ad=0p pd=0u as=0p ps=0u w=1e+06u l=1e+06u
X148 w_15229_3239.t41 vbias2.t69 vdd.t146 vdd sky130_fd_pr__pfet_01v8_lvt ad=0p pd=0u as=0p ps=0u w=2e+06u l=1e+06u
X149 vt.t0 vbias1.t76 vdd.t30 vdd sky130_fd_pr__pfet_01v8_lvt ad=0p pd=0u as=0p ps=0u w=2e+06u l=1e+06u
X150 vdd.t145 vbias2.t70 vsquare.t83 vdd sky130_fd_pr__pfet_01v8_lvt ad=0p pd=0u as=0p ps=0u w=2e+06u l=1e+06u
X151 vt.t0 a_2845_1227.t51 vss.t160 vss sky130_fd_pr__nfet_01v8_lvt ad=0p pd=0u as=0p ps=0u w=1e+06u l=1e+06u
X152 a_16369_1227.t23 OTA_revised_0/vp w_15229_3239.t14 w_15229_3239# sky130_fd_pr__pfet_01v8_lvt ad=0p pd=0u as=0p ps=0u w=4e+06u l=1e+06u
X153 a_n1703_5991# a_n471_6309# vss sky130_fd_pr__res_xhigh_po w=350000u l=4e+06u
X154 vbias2.t7 vbias2.t6 vdd.t144 vdd sky130_fd_pr__pfet_01v8_lvt ad=0p pd=0u as=0p ps=0u w=2e+06u l=1e+06u
X155 vt.t0 a_2845_1227.t52 vss.t161 vss sky130_fd_pr__nfet_01v8_lvt ad=0p pd=0u as=0p ps=0u w=1e+06u l=1e+06u
X156 vdd.t36 vbias1.t38 vbias1.t39 vdd sky130_fd_pr__pfet_01v8_lvt ad=0p pd=0u as=0p ps=0u w=2e+06u l=1e+06u
X157 a_2845_1227.t10 vref.t10 w_1705_3239.t26 w_1705_3239# sky130_fd_pr__pfet_01v8_lvt ad=0p pd=0u as=0p ps=0u w=4e+06u l=1e+06u
X158 vss.t170 a_16369_1227.t55 vsquare.t99 vss sky130_fd_pr__nfet_01v8_lvt ad=0p pd=0u as=0p ps=0u w=1e+06u l=1e+06u
X159 vss.t171 a_16369_1227.t56 vsquare.t100 vss sky130_fd_pr__nfet_01v8_lvt ad=0p pd=0u as=0p ps=0u w=1e+06u l=1e+06u
X160 vss.t187 a_2845_1227.t53 vt.t0 vss sky130_fd_pr__nfet_01v8_lvt ad=0p pd=0u as=0p ps=0u w=1e+06u l=1e+06u
X161 vsquare.t82 vbias2.t71 vdd.t143 vdd sky130_fd_pr__pfet_01v8_lvt ad=0p pd=0u as=0p ps=0u w=2e+06u l=1e+06u
X162 a_15425_1139.t19 a_15425_1139.t18 vss.t94 vss sky130_fd_pr__nfet_01v8_lvt ad=0p pd=0u as=0p ps=0u w=1e+06u l=1e+06u
X163 vss.t188 a_2845_1227.t54 vt.t0 vss sky130_fd_pr__nfet_01v8_lvt ad=0p pd=0u as=0p ps=0u w=1e+06u l=1e+06u
X164 vsquare.t95 a_16369_1227.t57 vss.t166 vss sky130_fd_pr__nfet_01v8_lvt ad=0p pd=0u as=0p ps=0u w=1e+06u l=1e+06u
X165 a_15425_1139.t17 a_15425_1139.t16 vss.t31 vss sky130_fd_pr__nfet_01v8_lvt ad=0p pd=0u as=0p ps=0u w=1e+06u l=1e+06u
X166 vdd.t49 vbias1.t36 vbias1.t37 vdd sky130_fd_pr__pfet_01v8_lvt ad=0p pd=0u as=0p ps=0u w=2e+06u l=1e+06u
X167 vdd.t48 vbias1.t34 vbias1.t35 vdd sky130_fd_pr__pfet_01v8_lvt ad=0p pd=0u as=0p ps=0u w=2e+06u l=1e+06u
X168 vsquare.t96 a_16369_1227.t58 vss.t167 vss sky130_fd_pr__nfet_01v8_lvt ad=0p pd=0u as=0p ps=0u w=1e+06u l=1e+06u
X169 vbias2.t17 vbias2.t16 vdd.t142 vdd sky130_fd_pr__pfet_01v8_lvt ad=0p pd=0u as=0p ps=0u w=2e+06u l=1e+06u
X170 vss.t8 a_16369_1227.t59 vsquare.t4 vss sky130_fd_pr__nfet_01v8_lvt ad=0p pd=0u as=0p ps=0u w=1e+06u l=1e+06u
X171 vss.t9 a_16369_1227.t60 vsquare.t5 vss sky130_fd_pr__nfet_01v8_lvt ad=0p pd=0u as=0p ps=0u w=1e+06u l=1e+06u
X172 vdd.t141 vbias2.t72 vsquare.t81 vdd sky130_fd_pr__pfet_01v8_lvt ad=0p pd=0u as=0p ps=0u w=2e+06u l=1e+06u
X173 vdd.t175 vbias1.t32 vbias1.t33 vdd sky130_fd_pr__pfet_01v8_lvt ad=0p pd=0u as=0p ps=0u w=2e+06u l=1e+06u
X174 a_16369_1227.t13 a_15425_1139.t50 vss.t162 vss sky130_fd_pr__nfet_01v8_lvt ad=0p pd=0u as=0p ps=0u w=1e+06u l=1e+06u
X175 vdd.t140 vbias2.t73 vsquare.t80 vdd sky130_fd_pr__pfet_01v8_lvt ad=0p pd=0u as=0p ps=0u w=2e+06u l=1e+06u
X176 vss.t189 a_15425_1139.t51 a_16369_1227.t12 vss sky130_fd_pr__nfet_01v8_lvt ad=0p pd=0u as=0p ps=0u w=1e+06u l=1e+06u
X177 a_16369_1227.t11 a_15425_1139.t52 vss.t174 vss sky130_fd_pr__nfet_01v8_lvt ad=0p pd=0u as=0p ps=0u w=1e+06u l=1e+06u
X178 vss.t52 a_15425_1139.t53 a_16369_1227.t10 vss sky130_fd_pr__nfet_01v8_lvt ad=0p pd=0u as=0p ps=0u w=1e+06u l=1e+06u
X179 vss.t145 a_1901_1139.t54 a_2845_1227.t22 vss sky130_fd_pr__nfet_01v8_lvt ad=0p pd=0u as=0p ps=0u w=1e+06u l=1e+06u
X180 vss.t144 a_1901_1139.t55 a_2845_1227.t21 vss sky130_fd_pr__nfet_01v8_lvt ad=0p pd=0u as=0p ps=0u w=1e+06u l=1e+06u
X181 vdd.t139 vbias2.t74 w_15229_3239.t40 vdd sky130_fd_pr__pfet_01v8_lvt ad=0p pd=0u as=0p ps=0u w=2e+06u l=1e+06u
X182 vdd.t31 vbias1.t77 w_1705_3239.t42 vdd sky130_fd_pr__pfet_01v8_lvt ad=0p pd=0u as=0p ps=0u w=2e+06u l=1e+06u
X183 vss.t53 a_2845_1227.t55 vt.t0 vss sky130_fd_pr__nfet_01v8_lvt ad=0p pd=0u as=0p ps=0u w=1e+06u l=1e+06u
X184 vdd.t138 vbias2.t75 vsquare.t79 vdd sky130_fd_pr__pfet_01v8_lvt ad=0p pd=0u as=0p ps=0u w=2e+06u l=1e+06u
X185 a_1901_1139.t11 OTA_tri_revised_0/vn w_1705_3239.t11 w_1705_3239# sky130_fd_pr__pfet_01v8_lvt ad=0p pd=0u as=0p ps=0u w=4e+06u l=1e+06u
X186 vss.t54 a_2845_1227.t56 vt.t0 vss sky130_fd_pr__nfet_01v8_lvt ad=0p pd=0u as=0p ps=0u w=1e+06u l=1e+06u
X187 vt.t0 vbias1.t78 vdd.t32 vdd sky130_fd_pr__pfet_01v8_lvt ad=0p pd=0u as=0p ps=0u w=2e+06u l=1e+06u
X188 w_1705_3239.t10 OTA_tri_revised_0/vn a_1901_1139.t10 w_1705_3239# sky130_fd_pr__pfet_01v8_lvt ad=0p pd=0u as=0p ps=0u w=4e+06u l=1e+06u
X189 vt.t0 a_2845_1227.t57 vss.t67 vss sky130_fd_pr__nfet_01v8_lvt ad=0p pd=0u as=0p ps=0u w=1e+06u l=1e+06u
X190 vt.t0 a_2845_1227.t58 vss.t68 vss sky130_fd_pr__nfet_01v8_lvt ad=0p pd=0u as=0p ps=0u w=1e+06u l=1e+06u
X191 vdd.t21 vbias1.t79 vt.t0 vdd sky130_fd_pr__pfet_01v8_lvt ad=0p pd=0u as=0p ps=0u w=2e+06u l=1e+06u
X192 vdd.t22 vbias1.t80 w_1705_3239.t41 vdd sky130_fd_pr__pfet_01v8_lvt ad=0p pd=0u as=0p ps=0u w=2e+06u l=1e+06u
X193 vdd.t137 vbias2.t76 vsquare.t78 vdd sky130_fd_pr__pfet_01v8_lvt ad=0p pd=0u as=0p ps=0u w=2e+06u l=1e+06u
X194 a_16369_1227.t30 OTA_revised_0/vp w_15229_3239.t13 w_15229_3239# sky130_fd_pr__pfet_01v8_lvt ad=0p pd=0u as=0p ps=0u w=4e+06u l=1e+06u
X195 a_2845_1227.t8 vref.t11 w_1705_3239.t24 w_1705_3239# sky130_fd_pr__pfet_01v8_lvt ad=0p pd=0u as=0p ps=0u w=4e+06u l=1e+06u
X196 w_15229_3239.t12 OTA_revised_0/vp a_16369_1227.t17 w_15229_3239# sky130_fd_pr__pfet_01v8_lvt ad=0p pd=0u as=0p ps=0u w=4e+06u l=1e+06u
X197 vdd.t136 vbias2.t77 w_15229_3239.t39 vdd sky130_fd_pr__pfet_01v8_lvt ad=0p pd=0u as=0p ps=0u w=2e+06u l=1e+06u
X198 vss.t143 a_1901_1139.t42 a_1901_1139.t43 vss sky130_fd_pr__nfet_01v8_lvt ad=0p pd=0u as=0p ps=0u w=1e+06u l=1e+06u
X199 vdd.t135 vbias2.t24 vbias2.t25 vdd sky130_fd_pr__pfet_01v8_lvt ad=0p pd=0u as=0p ps=0u w=2e+06u l=1e+06u
X200 w_1705_3239.t20 vref.t12 a_2845_1227.t4 w_1705_3239# sky130_fd_pr__pfet_01v8_lvt ad=0p pd=0u as=0p ps=0u w=4e+06u l=1e+06u
X201 vsquare.t77 vbias2.t78 vdd.t134 vdd sky130_fd_pr__pfet_01v8_lvt ad=0p pd=0u as=0p ps=0u w=2e+06u l=1e+06u
X202 vss.t142 a_1901_1139.t40 a_1901_1139.t41 vss sky130_fd_pr__nfet_01v8_lvt ad=0p pd=0u as=0p ps=0u w=1e+06u l=1e+06u
X203 vsquare.t14 a_16369_1227.t61 vss.t41 vss sky130_fd_pr__nfet_01v8_lvt ad=0p pd=0u as=0p ps=0u w=1e+06u l=1e+06u
X204 vdd.t23 vbias1.t81 w_1705_3239.t40 vdd sky130_fd_pr__pfet_01v8_lvt ad=0p pd=0u as=0p ps=0u w=2e+06u l=1e+06u
X205 vsquare.t15 a_16369_1227.t62 vss.t42 vss sky130_fd_pr__nfet_01v8_lvt ad=0p pd=0u as=0p ps=0u w=1e+06u l=1e+06u
X206 vt.t0 a_2845_1227.t59 vss.t81 vss sky130_fd_pr__nfet_01v8_lvt ad=0p pd=0u as=0p ps=0u w=1e+06u l=1e+06u
X207 vdd.t133 vbias2.t79 vsquare.t76 vdd sky130_fd_pr__pfet_01v8_lvt ad=0p pd=0u as=0p ps=0u w=2e+06u l=1e+06u
X208 vt.t0 a_2845_1227.t60 vss.t82 vss sky130_fd_pr__nfet_01v8_lvt ad=0p pd=0u as=0p ps=0u w=1e+06u l=1e+06u
X209 vss.t87 a_15425_1139.t54 a_16369_1227.t9 vss sky130_fd_pr__nfet_01v8_lvt ad=0p pd=0u as=0p ps=0u w=1e+06u l=1e+06u
X210 vdd.t72 vbias1.t82 vt.t0 vdd sky130_fd_pr__pfet_01v8_lvt ad=0p pd=0u as=0p ps=0u w=2e+06u l=1e+06u
X211 vss.t116 a_15425_1139.t55 a_16369_1227.t8 vss sky130_fd_pr__nfet_01v8_lvt ad=0p pd=0u as=0p ps=0u w=1e+06u l=1e+06u
X212 vbias2.t27 vbias2.t26 vdd.t132 vdd sky130_fd_pr__pfet_01v8_lvt ad=0p pd=0u as=0p ps=0u w=2e+06u l=1e+06u
X213 a_15425_1139.t38 vref.t13 w_15229_3239.t22 w_15229_3239# sky130_fd_pr__pfet_01v8_lvt ad=0p pd=0u as=0p ps=0u w=4e+06u l=1e+06u
X214 vsquare.t103 a_16369_1227.t63 vss.t175 vss sky130_fd_pr__nfet_01v8_lvt ad=0p pd=0u as=0p ps=0u w=1e+06u l=1e+06u
X215 w_1705_3239.t9 OTA_tri_revised_0/vn a_1901_1139.t9 w_1705_3239# sky130_fd_pr__pfet_01v8_lvt ad=0p pd=0u as=0p ps=0u w=4e+06u l=1e+06u
X216 vsquare.t104 a_16369_1227.t64 vss.t176 vss sky130_fd_pr__nfet_01v8_lvt ad=0p pd=0u as=0p ps=0u w=1e+06u l=1e+06u
X217 vt.t1 OTA_revised_0/vp vss sky130_fd_pr__res_xhigh_po w=350000u l=4e+06u
X218 vbias1.t31 vbias1.t30 vdd.t1 vdd sky130_fd_pr__pfet_01v8_lvt ad=0p pd=0u as=0p ps=0u w=2e+06u l=1e+06u
X219 vdd.t131 vbias2.t80 vsquare.t75 vdd sky130_fd_pr__pfet_01v8_lvt ad=0p pd=0u as=0p ps=0u w=2e+06u l=1e+06u
X220 vdd.t130 vbias2.t81 w_15229_3239.t38 vdd sky130_fd_pr__pfet_01v8_lvt ad=0p pd=0u as=0p ps=0u w=2e+06u l=1e+06u
X221 a_16369_1227.t28 OTA_revised_0/vp w_15229_3239.t11 w_15229_3239# sky130_fd_pr__pfet_01v8_lvt ad=0p pd=0u as=0p ps=0u w=4e+06u l=1e+06u
X222 vdd.t73 vbias1.t83 vt.t0 vdd sky130_fd_pr__pfet_01v8_lvt ad=0p pd=0u as=0p ps=0u w=2e+06u l=1e+06u
X223 a_n1703_5355# vsquare.t33 vss sky130_fd_pr__res_xhigh_po w=350000u l=4e+06u
X224 vsquare.t74 vbias2.t82 vdd.t129 vdd sky130_fd_pr__pfet_01v8_lvt ad=0p pd=0u as=0p ps=0u w=2e+06u l=1e+06u
X225 vdd.t0 vbias1.t28 vbias1.t29 vdd sky130_fd_pr__pfet_01v8_lvt ad=0p pd=0u as=0p ps=0u w=2e+06u l=1e+06u
X226 a_1901_1139.t31 a_1901_1139.t30 vss.t141 vss sky130_fd_pr__nfet_01v8_lvt ad=0p pd=0u as=0p ps=0u w=1e+06u l=1e+06u
X227 a_1901_1139.t29 a_1901_1139.t28 vss.t140 vss sky130_fd_pr__nfet_01v8_lvt ad=0p pd=0u as=0p ps=0u w=1e+06u l=1e+06u
X228 vt.t0 vbias1.t84 vdd.t74 vdd sky130_fd_pr__pfet_01v8_lvt ad=0p pd=0u as=0p ps=0u w=2e+06u l=1e+06u
X229 vdd.t128 vbias2.t83 vsquare.t73 vdd sky130_fd_pr__pfet_01v8_lvt ad=0p pd=0u as=0p ps=0u w=2e+06u l=1e+06u
X230 vdd.t127 vbias2.t84 w_15229_3239.t37 vdd sky130_fd_pr__pfet_01v8_lvt ad=0p pd=0u as=0p ps=0u w=2e+06u l=1e+06u
X231 vss.t6 a_2845_1227.t61 vt.t0 vss sky130_fd_pr__nfet_01v8_lvt ad=0p pd=0u as=0p ps=0u w=1e+06u l=1e+06u
X232 vdd.t60 vbias1.t26 vbias1.t27 vdd sky130_fd_pr__pfet_01v8_lvt ad=0p pd=0u as=0p ps=0u w=2e+06u l=1e+06u
X233 vsquare.t72 vbias2.t85 vdd.t126 vdd sky130_fd_pr__pfet_01v8_lvt ad=0p pd=0u as=0p ps=0u w=2e+06u l=1e+06u
X234 w_1705_3239.t39 vbias1.t85 vdd.t11 vdd sky130_fd_pr__pfet_01v8_lvt ad=0p pd=0u as=0p ps=0u w=2e+06u l=1e+06u
X235 vss.t7 a_2845_1227.t62 vt.t0 vss sky130_fd_pr__nfet_01v8_lvt ad=0p pd=0u as=0p ps=0u w=1e+06u l=1e+06u
X236 a_n1703_7263# OTA_tri_revised_0/vn vss sky130_fd_pr__res_xhigh_po w=350000u l=4e+06u
X237 w_1705_3239.t19 vref.t14 a_2845_1227.t3 w_1705_3239# sky130_fd_pr__pfet_01v8_lvt ad=0p pd=0u as=0p ps=0u w=4e+06u l=1e+06u
X238 vsquare.t8 a_16369_1227.t65 vss.t16 vss sky130_fd_pr__nfet_01v8_lvt ad=0p pd=0u as=0p ps=0u w=1e+06u l=1e+06u
X239 vt.t0 a_2845_1227.t63 vss.t0 vss sky130_fd_pr__nfet_01v8_lvt ad=0p pd=0u as=0p ps=0u w=1e+06u l=1e+06u
X240 vsquare.t9 a_16369_1227.t66 vss.t17 vss sky130_fd_pr__nfet_01v8_lvt ad=0p pd=0u as=0p ps=0u w=1e+06u l=1e+06u
X241 vt.t0 a_2845_1227.t64 vss.t1 vss sky130_fd_pr__nfet_01v8_lvt ad=0p pd=0u as=0p ps=0u w=1e+06u l=1e+06u
X242 vt.t0 a_2845_1227.t65 vss.t22 vss sky130_fd_pr__nfet_01v8_lvt ad=0p pd=0u as=0p ps=0u w=1e+06u l=1e+06u
X243 vsquare.t71 vbias2.t86 vdd.t125 vdd sky130_fd_pr__pfet_01v8_lvt ad=0p pd=0u as=0p ps=0u w=2e+06u l=1e+06u
X244 vt.t0 a_2845_1227.t66 vss.t23 vss sky130_fd_pr__nfet_01v8_lvt ad=0p pd=0u as=0p ps=0u w=1e+06u l=1e+06u
X245 vdd.t43 vbias1.t24 vbias1.t25 vdd sky130_fd_pr__pfet_01v8_lvt ad=0p pd=0u as=0p ps=0u w=2e+06u l=1e+06u
X246 vss.t112 a_16369_1227.t67 vsquare.t34 vss sky130_fd_pr__nfet_01v8_lvt ad=0p pd=0u as=0p ps=0u w=1e+06u l=1e+06u
X247 w_1705_3239.t38 vbias1.t86 vdd.t12 vdd sky130_fd_pr__pfet_01v8_lvt ad=0p pd=0u as=0p ps=0u w=2e+06u l=1e+06u
X248 vss.t113 a_16369_1227.t68 vsquare.t35 vss sky130_fd_pr__nfet_01v8_lvt ad=0p pd=0u as=0p ps=0u w=1e+06u l=1e+06u
X249 a_15425_1139.t37 vref.t15 w_15229_3239.t21 w_15229_3239# sky130_fd_pr__pfet_01v8_lvt ad=0p pd=0u as=0p ps=0u w=4e+06u l=1e+06u
X250 vss.t183 a_16369_1227.t69 vsquare.t111 vss sky130_fd_pr__nfet_01v8_lvt ad=0p pd=0u as=0p ps=0u w=1e+06u l=1e+06u
X251 vss.t184 a_16369_1227.t70 vsquare.t112 vss sky130_fd_pr__nfet_01v8_lvt ad=0p pd=0u as=0p ps=0u w=1e+06u l=1e+06u
X252 w_15229_3239.t36 vbias2.t87 vdd.t124 vdd sky130_fd_pr__pfet_01v8_lvt ad=0p pd=0u as=0p ps=0u w=2e+06u l=1e+06u
X253 vdd.t123 vbias2.t88 vsquare.t70 vdd sky130_fd_pr__pfet_01v8_lvt ad=0p pd=0u as=0p ps=0u w=2e+06u l=1e+06u
X254 vss.t50 a_15425_1139.t14 a_15425_1139.t15 vss sky130_fd_pr__nfet_01v8_lvt ad=0p pd=0u as=0p ps=0u w=1e+06u l=1e+06u
X255 vss.t124 a_16369_1227.t71 vsquare.t43 vss sky130_fd_pr__nfet_01v8_lvt ad=0p pd=0u as=0p ps=0u w=1e+06u l=1e+06u
X256 a_16369_1227.t27 OTA_revised_0/vp w_15229_3239.t10 w_15229_3239# sky130_fd_pr__pfet_01v8_lvt ad=0p pd=0u as=0p ps=0u w=4e+06u l=1e+06u
X257 vss.t32 a_15425_1139.t12 a_15425_1139.t13 vss sky130_fd_pr__nfet_01v8_lvt ad=0p pd=0u as=0p ps=0u w=1e+06u l=1e+06u
X258 vss.t125 a_16369_1227.t72 vsquare.t44 vss sky130_fd_pr__nfet_01v8_lvt ad=0p pd=0u as=0p ps=0u w=1e+06u l=1e+06u
X259 a_16369_1227.t26 OTA_revised_0/vp w_15229_3239.t9 w_15229_3239# sky130_fd_pr__pfet_01v8_lvt ad=0p pd=0u as=0p ps=0u w=4e+06u l=1e+06u
X260 vdd.t122 vbias2.t89 w_15229_3239.t35 vdd sky130_fd_pr__pfet_01v8_lvt ad=0p pd=0u as=0p ps=0u w=2e+06u l=1e+06u
X261 vdd.t13 vbias1.t87 w_1705_3239.t37 vdd sky130_fd_pr__pfet_01v8_lvt ad=0p pd=0u as=0p ps=0u w=2e+06u l=1e+06u